
     RDKit          3D

 93 92  0  0  0  0  0  0  0  0999 V2000
    2.9421   -6.4853    4.9007 O   0  0  0  0  0  0  0  0  0  0  0  0
    3.0998   -5.9503    6.1606 C   0  0  0  0  0  0  0  0  0  0  0  0
    4.4374   -5.2513    6.2965 C   0  0  0  0  0  0  0  0  0  0  0  0
    4.5558   -4.1288    5.3053 C   0  0  0  0  0  0  0  0  0  0  0  0
    4.0725   -3.0400    5.6429 O   0  0  0  0  0  0  0  0  0  0  0  0
    5.1638   -4.3595    4.1360 O   0  0  0  0  0  0  0  0  0  0  0  0
    5.3926   -3.5312    3.0686 C   0  0  0  0  0  0  0  0  0  0  0  0
    4.2357   -3.0458    2.2625 C   0  0  0  0  0  0  0  0  0  0  0  0
    3.2852   -2.2630    3.0511 C   0  0  0  0  0  0  0  0  0  0  0  0
    2.1888   -2.7837    3.3553 O   0  0  0  0  0  0  0  0  0  0  0  0
    3.5813   -1.0022    3.4427 O   0  0  0  0  0  0  0  0  0  0  0  0
    2.8798   -0.0650    4.1641 C   0  0  0  0  0  0  0  0  0  0  0  0
    1.6165    0.4710    3.6083 C   0  0  0  0  0  0  0  0  0  0  0  0
    0.5363   -0.4915    3.3488 C   0  0  0  0  0  0  0  0  0  0  0  0
   -0.1203   -1.0030    4.2936 O   0  0  0  0  0  0  0  0  0  0  0  0
    0.2831   -0.8028    2.0012 O   0  0  0  0  0  0  0  0  0  0  0  0
   -0.7602   -1.7341    1.7564 C   0  0  0  0  0  0  0  0  0  0  0  0
   -0.8100   -1.9105    0.2559 C   0  0  0  0  0  0  0  0  0  0  0  0
   -1.1046   -0.7103   -0.5054 C   0  0  0  0  0  0  0  0  0  0  0  0
   -0.8095   -0.7094   -1.7505 O   0  0  0  0  0  0  0  0  0  0  0  0
   -1.6826    0.4584   -0.0335 O   0  0  0  0  0  0  0  0  0  0  0  0
   -1.8677    1.4807   -0.9835 C   0  0  0  0  0  0  0  0  0  0  0  0
   -2.5128    2.7220   -0.4934 C   0  0  0  0  0  0  0  0  0  0  0  0
   -1.7976    3.4205    0.5993 C   0  0  0  0  0  0  0  0  0  0  0  0
   -2.3786    3.7109    1.6947 O   0  0  0  0  0  0  0  0  0  0  0  0
   -0.4741    3.7458    0.3842 O   0  0  0  0  0  0  0  0  0  0  0  0
    0.3587    4.4212    1.3163 C   0  0  0  0  0  0  0  0  0  0  0  0
    1.7359    4.5123    0.7048 C   0  0  0  0  0  0  0  0  0  0  0  0
    1.7771    5.2482   -0.5789 C   0  0  0  0  0  0  0  0  0  0  0  0
    2.3099    6.3925   -0.6856 O   0  0  0  0  0  0  0  0  0  0  0  0
    1.2085    4.6432   -1.6816 O   0  0  0  0  0  0  0  0  0  0  0  0
    1.1739    5.1941   -2.9828 C   0  0  0  0  0  0  0  0  0  0  0  0
    0.4298    4.3381   -3.9569 C   0  0  0  0  0  0  0  0  0  0  0  0
    1.0157    2.9930   -4.0425 C   0  0  0  0  0  0  0  0  0  0  0  0
    2.0136    2.6761   -3.3227 O   0  0  0  0  0  0  0  0  0  0  0  0
    0.4328    2.0991   -4.9344 O   0  0  0  0  0  0  0  0  0  0  0  0
    0.9465    0.8111   -5.0405 C   0  0  0  0  0  0  0  0  0  0  0  0
    0.2485   -0.0434   -6.0527 C   0  0  0  0  0  0  0  0  0  0  0  0
   -1.1911   -0.2365   -5.8232 C   0  0  0  0  0  0  0  0  0  0  0  0
   -1.9398    0.7704   -6.0771 O   0  0  0  0  0  0  0  0  0  0  0  0
   -1.7725   -1.4049   -5.3637 O   0  0  0  0  0  0  0  0  0  0  0  0
   -3.1430   -1.6146   -5.1412 C   0  0  0  0  0  0  0  0  0  0  0  0
   -3.6372   -0.6523   -4.1177 C   0  0  0  0  0  0  0  0  0  0  0  0
   -5.1090   -0.8426   -3.8350 C   0  0  0  0  0  0  0  0  0  0  0  0
   -5.7782   -1.7266   -4.4255 O   0  0  0  0  0  0  0  0  0  0  0  0
   -5.6852   -0.0037   -2.9022 O   0  0  0  0  0  0  0  0  0  0  0  0
   -7.0501   -0.0678   -2.5354 C   0  0  0  0  0  0  0  0  0  0  0  0
   -7.2626    1.0210   -1.4957 C   0  0  0  0  0  0  0  0  0  0  0  0
   -6.9302    2.3546   -2.0872 C   0  0  0  0  0  0  0  0  0  0  0  0
   -7.0187    3.4042   -1.4011 O   0  0  0  0  0  0  0  0  0  0  0  0
   -6.5132    2.4343   -3.4303 O   0  0  0  0  0  0  0  0  0  0  0  0
    2.4271   -5.9238    4.2784 H   0  0  0  0  0  0  0  0  0  0  0  0
    2.9920   -6.6923    6.9642 H   0  0  0  0  0  0  0  0  0  0  0  0
    2.2867   -5.1862    6.3138 H   0  0  0  0  0  0  0  0  0  0  0  0
    5.2222   -6.0021    6.0731 H   0  0  0  0  0  0  0  0  0  0  0  0
    4.5978   -4.8938    7.3383 H   0  0  0  0  0  0  0  0  0  0  0  0
    6.1464   -4.0393    2.3884 H   0  0  0  0  0  0  0  0  0  0  0  0
    5.9361   -2.5834    3.3926 H   0  0  0  0  0  0  0  0  0  0  0  0
    3.7520   -3.9437    1.7870 H   0  0  0  0  0  0  0  0  0  0  0  0
    4.6255   -2.3783    1.4284 H   0  0  0  0  0  0  0  0  0  0  0  0
    2.6769   -0.3620    5.2234 H   0  0  0  0  0  0  0  0  0  0  0  0
    3.5698    0.8256    4.2831 H   0  0  0  0  0  0  0  0  0  0  0  0
    1.7673    1.1441    2.7317 H   0  0  0  0  0  0  0  0  0  0  0  0
    1.2004    1.1745    4.3979 H   0  0  0  0  0  0  0  0  0  0  0  0
   -0.6561   -2.6828    2.2763 H   0  0  0  0  0  0  0  0  0  0  0  0
   -1.7145   -1.2620    2.0671 H   0  0  0  0  0  0  0  0  0  0  0  0
    0.1739   -2.3474   -0.0460 H   0  0  0  0  0  0  0  0  0  0  0  0
   -1.5770   -2.6844   -0.0180 H   0  0  0  0  0  0  0  0  0  0  0  0
   -2.5760    1.0381   -1.7485 H   0  0  0  0  0  0  0  0  0  0  0  0
   -0.9164    1.7633   -1.4854 H   0  0  0  0  0  0  0  0  0  0  0  0
   -2.5039    3.4462   -1.3594 H   0  0  0  0  0  0  0  0  0  0  0  0
   -3.5809    2.5966   -0.2065 H   0  0  0  0  0  0  0  0  0  0  0  0
    0.4745    3.8032    2.2316 H   0  0  0  0  0  0  0  0  0  0  0  0
   -0.0166    5.3991    1.6203 H   0  0  0  0  0  0  0  0  0  0  0  0
    2.3983    5.0283    1.4232 H   0  0  0  0  0  0  0  0  0  0  0  0
    2.1430    3.4847    0.6136 H   0  0  0  0  0  0  0  0  0  0  0  0
    0.7085    6.2092   -2.8669 H   0  0  0  0  0  0  0  0  0  0  0  0
    2.2157    5.4141   -3.3343 H   0  0  0  0  0  0  0  0  0  0  0  0
   -0.6493    4.3458   -3.7798 H   0  0  0  0  0  0  0  0  0  0  0  0
    0.6063    4.8125   -4.9722 H   0  0  0  0  0  0  0  0  0  0  0  0
    2.0163    0.8936   -5.3907 H   0  0  0  0  0  0  0  0  0  0  0  0
    1.0291    0.3029   -4.0578 H   0  0  0  0  0  0  0  0  0  0  0  0
    0.3764    0.3679   -7.0786 H   0  0  0  0  0  0  0  0  0  0  0  0
    0.8080   -1.0231   -6.0607 H   0  0  0  0  0  0  0  0  0  0  0  0
   -3.2315   -2.6502   -4.7165 H   0  0  0  0  0  0  0  0  0  0  0  0
   -3.7382   -1.6102   -6.0813 H   0  0  0  0  0  0  0  0  0  0  0  0
   -3.1521   -0.9351   -3.1404 H   0  0  0  0  0  0  0  0  0  0  0  0
   -3.4877    0.3902   -4.3944 H   0  0  0  0  0  0  0  0  0  0  0  0
   -7.7447    0.1195   -3.3708 H   0  0  0  0  0  0  0  0  0  0  0  0
   -7.3272   -1.0318   -2.0825 H   0  0  0  0  0  0  0  0  0  0  0  0
   -6.6203    0.8729   -0.5958 H   0  0  0  0  0  0  0  0  0  0  0  0
   -8.3034    1.0827   -1.1670 H   0  0  0  0  0  0  0  0  0  0  0  0
   -6.2136    3.3154   -3.8001 H   0  0  0  0  0  0  0  0  0  0  0  0
  1  2  1  0
  2  3  1  0
  3  4  1  0
  4  5  2  0
  4  6  1  0
  6  7  1  0
  7  8  1  0
  8  9  1  0
  9 10  2  0
  9 11  1  0
 11 12  1  0
 12 13  1  0
 13 14  1  0
 14 15  2  0
 14 16  1  0
 16 17  1  0
 17 18  1  0
 18 19  1  0
 19 20  2  0
 19 21  1  0
 21 22  1  0
 22 23  1  0
 23 24  1  0
 24 25  2  0
 24 26  1  0
 26 27  1  0
 27 28  1  0
 28 29  1  0
 29 30  2  0
 29 31  1  0
 31 32  1  0
 32 33  1  0
 33 34  1  0
 34 35  2  0
 34 36  1  0
 36 37  1  0
 37 38  1  0
 38 39  1  0
 39 40  2  0
 39 41  1  0
 41 42  1  0
 42 43  1  0
 43 44  1  0
 44 45  2  0
 44 46  1  0
 46 47  1  0
 47 48  1  0
 48 49  1  0
 49 50  2  0
 49 51  1  0
  1 52  1  0
  2 53  1  0
  2 54  1  0
  3 55  1  0
  3 56  1  0
  7 57  1  0
  7 58  1  0
  8 59  1  0
  8 60  1  0
 12 61  1  0
 12 62  1  0
 13 63  1  0
 13 64  1  0
 17 65  1  0
 17 66  1  0
 18 67  1  0
 18 68  1  0
 22 69  1  0
 22 70  1  0
 23 71  1  0
 23 72  1  0
 27 73  1  0
 27 74  1  0
 28 75  1  0
 28 76  1  0
 32 77  1  0
 32 78  1  0
 33 79  1  0
 33 80  1  0
 37 81  1  0
 37 82  1  0
 38 83  1  0
 38 84  1  0
 42 85  1  0
 42 86  1  0
 43 87  1  0
 43 88  1  0
 47 89  1  0
 47 90  1  0
 48 91  1  0
 48 92  1  0
 51 93  1  0
M  END
$$$$
