
     RDKit          3D

123122  0  0  0  0  0  0  0  0999 V2000
    1.5561   -2.5128    7.3644 O   0  0  0  0  0  0  0  0  0  0  0  0
    1.3436   -3.8857    7.3463 C   0  0  0  0  0  0  0  0  0  0  0  0
    2.5675   -4.7084    7.5513 C   0  0  0  0  0  0  0  0  0  0  0  0
    3.6611   -4.5267    6.5543 C   0  0  0  0  0  0  0  0  0  0  0  0
    3.2765   -4.8376    5.1768 C   0  0  0  0  0  0  0  0  0  0  0  0
    2.0947   -5.2072    4.9608 O   0  0  0  0  0  0  0  0  0  0  0  0
    4.1304   -4.7545    4.0773 O   0  0  0  0  0  0  0  0  0  0  0  0
    3.6696   -5.0725    2.7737 C   0  0  0  0  0  0  0  0  0  0  0  0
    2.5913   -4.1768    2.2642 C   0  0  0  0  0  0  0  0  0  0  0  0
    2.9655   -2.7480    2.1014 C   0  0  0  0  0  0  0  0  0  0  0  0
    3.4258   -2.0587    3.3105 C   0  0  0  0  0  0  0  0  0  0  0  0
    4.6352   -2.1911    3.6419 O   0  0  0  0  0  0  0  0  0  0  0  0
    2.6273   -1.2573    4.1290 O   0  0  0  0  0  0  0  0  0  0  0  0
    3.1785   -0.6148    5.2693 C   0  0  0  0  0  0  0  0  0  0  0  0
    4.2362    0.3957    4.9406 C   0  0  0  0  0  0  0  0  0  0  0  0
    3.7430    1.5548    4.1123 C   0  0  0  0  0  0  0  0  0  0  0  0
    3.1716    1.1925    2.8153 C   0  0  0  0  0  0  0  0  0  0  0  0
    3.8054    0.7026    1.8495 O   0  0  0  0  0  0  0  0  0  0  0  0
    1.8037    1.3987    2.6112 O   0  0  0  0  0  0  0  0  0  0  0  0
    1.0996    1.0916    1.4481 C   0  0  0  0  0  0  0  0  0  0  0  0
   -0.3617    1.5108    1.5600 C   0  0  0  0  0  0  0  0  0  0  0  0
   -0.4302    2.9906    1.7168 C   0  0  0  0  0  0  0  0  0  0  0  0
   -1.8396    3.4832    1.8568 C   0  0  0  0  0  0  0  0  0  0  0  0
   -2.8187    2.6853    1.9391 O   0  0  0  0  0  0  0  0  0  0  0  0
   -1.9931    4.8542    1.8920 O   0  0  0  0  0  0  0  0  0  0  0  0
   -3.2652    5.4263    2.0425 C   0  0  0  0  0  0  0  0  0  0  0  0
   -3.1577    6.9435    2.0340 C   0  0  0  0  0  0  0  0  0  0  0  0
   -2.6601    7.4921    0.7135 C   0  0  0  0  0  0  0  0  0  0  0  0
   -3.5818    7.2578   -0.3865 C   0  0  0  0  0  0  0  0  0  0  0  0
   -4.5735    8.0749   -0.4870 O   0  0  0  0  0  0  0  0  0  0  0  0
   -3.5564    6.2724   -1.3611 O   0  0  0  0  0  0  0  0  0  0  0  0
   -4.6153    6.2957   -2.3385 C   0  0  0  0  0  0  0  0  0  0  0  0
   -4.5447    5.1950   -3.3364 C   0  0  0  0  0  0  0  0  0  0  0  0
   -3.3062    5.1502   -4.1652 C   0  0  0  0  0  0  0  0  0  0  0  0
   -3.3660    4.0224   -5.1705 C   0  0  0  0  0  0  0  0  0  0  0  0
   -2.4619    3.8284   -6.0094 O   0  0  0  0  0  0  0  0  0  0  0  0
   -4.4481    3.1774   -5.1727 O   0  0  0  0  0  0  0  0  0  0  0  0
   -4.7270    2.1081   -5.9911 C   0  0  0  0  0  0  0  0  0  0  0  0
   -3.7849    0.9632   -6.0324 C   0  0  0  0  0  0  0  0  0  0  0  0
   -3.5464    0.2322   -4.7567 C   0  0  0  0  0  0  0  0  0  0  0  0
   -2.9538    1.0411   -3.6911 C   0  0  0  0  0  0  0  0  0  0  0  0
   -3.5770    1.7926   -2.9054 O   0  0  0  0  0  0  0  0  0  0  0  0
   -1.5499    1.0063   -3.4922 O   0  0  0  0  0  0  0  0  0  0  0  0
   -1.0805    1.8210   -2.4807 C   0  0  0  0  0  0  0  0  0  0  0  0
    0.3489    1.8035   -2.1300 C   0  0  0  0  0  0  0  0  0  0  0  0
    1.3628    2.1030   -3.1566 C   0  0  0  0  0  0  0  0  0  0  0  0
    1.5409    1.1878   -4.2829 C   0  0  0  0  0  0  0  0  0  0  0  0
    2.5378    0.3677   -4.1756 O   0  0  0  0  0  0  0  0  0  0  0  0
    0.8169    1.0711   -5.4343 O   0  0  0  0  0  0  0  0  0  0  0  0
    1.0667    0.1947   -6.4945 C   0  0  0  0  0  0  0  0  0  0  0  0
    1.0356   -1.2419   -6.1000 C   0  0  0  0  0  0  0  0  0  0  0  0
   -0.3157   -1.6215   -5.5936 C   0  0  0  0  0  0  0  0  0  0  0  0
   -0.4075   -3.0672   -5.1896 C   0  0  0  0  0  0  0  0  0  0  0  0
    0.5916   -3.8094   -5.2351 O   0  0  0  0  0  0  0  0  0  0  0  0
   -1.6556   -3.4959   -4.7737 O   0  0  0  0  0  0  0  0  0  0  0  0
   -1.9212   -4.8091   -4.3489 C   0  0  0  0  0  0  0  0  0  0  0  0
   -1.0701   -5.0501   -3.0967 C   0  0  0  0  0  0  0  0  0  0  0  0
   -1.5371   -4.0035   -2.0881 C   0  0  0  0  0  0  0  0  0  0  0  0
   -0.8052   -4.0992   -0.8221 C   0  0  0  0  0  0  0  0  0  0  0  0
    0.1309   -4.9432   -0.6249 O   0  0  0  0  0  0  0  0  0  0  0  0
   -1.1663   -3.2181    0.1997 O   0  0  0  0  0  0  0  0  0  0  0  0
    0.8231   -2.0216    7.8125 H   0  0  0  0  0  0  0  0  0  0  0  0
    0.6940   -4.2014    6.5039 H   0  0  0  0  0  0  0  0  0  0  0  0
    0.6938   -4.0764    8.2566 H   0  0  0  0  0  0  0  0  0  0  0  0
    2.2621   -5.7471    7.7007 H   0  0  0  0  0  0  0  0  0  0  0  0
    2.9978   -4.3853    8.5455 H   0  0  0  0  0  0  0  0  0  0  0  0
    4.1747   -3.5701    6.6128 H   0  0  0  0  0  0  0  0  0  0  0  0
    4.4498   -5.2959    6.8286 H   0  0  0  0  0  0  0  0  0  0  0  0
    4.5649   -4.9492    2.1089 H   0  0  0  0  0  0  0  0  0  0  0  0
    3.3112   -6.1106    2.6873 H   0  0  0  0  0  0  0  0  0  0  0  0
    1.6689   -4.2912    2.8997 H   0  0  0  0  0  0  0  0  0  0  0  0
    2.3245   -4.5639    1.2329 H   0  0  0  0  0  0  0  0  0  0  0  0
    3.7312   -2.6976    1.2809 H   0  0  0  0  0  0  0  0  0  0  0  0
    2.0491   -2.2045    1.7204 H   0  0  0  0  0  0  0  0  0  0  0  0
    2.3573   -0.0597    5.7755 H   0  0  0  0  0  0  0  0  0  0  0  0
    3.6011   -1.3468    5.9740 H   0  0  0  0  0  0  0  0  0  0  0  0
    5.1257   -0.0562    4.4475 H   0  0  0  0  0  0  0  0  0  0  0  0
    4.5980    0.8079    5.9157 H   0  0  0  0  0  0  0  0  0  0  0  0
    2.9762    2.1396    4.7007 H   0  0  0  0  0  0  0  0  0  0  0  0
    4.6022    2.2668    4.0214 H   0  0  0  0  0  0  0  0  0  0  0  0
    1.1732   -0.0096    1.2672 H   0  0  0  0  0  0  0  0  0  0  0  0
    1.5202    1.5658    0.5442 H   0  0  0  0  0  0  0  0  0  0  0  0
   -0.8961    1.1803    0.6590 H   0  0  0  0  0  0  0  0  0  0  0  0
   -0.8359    1.0051    2.4368 H   0  0  0  0  0  0  0  0  0  0  0  0
    0.0978    3.3167    2.6508 H   0  0  0  0  0  0  0  0  0  0  0  0
   -0.0048    3.5010    0.8345 H   0  0  0  0  0  0  0  0  0  0  0  0
   -3.7909    5.1230    2.9470 H   0  0  0  0  0  0  0  0  0  0  0  0
   -3.8490    5.1602    1.1410 H   0  0  0  0  0  0  0  0  0  0  0  0
   -4.1963    7.3268    2.1602 H   0  0  0  0  0  0  0  0  0  0  0  0
   -2.5597    7.3339    2.8755 H   0  0  0  0  0  0  0  0  0  0  0  0
   -1.6132    7.1373    0.4949 H   0  0  0  0  0  0  0  0  0  0  0  0
   -2.5464    8.5900    0.8599 H   0  0  0  0  0  0  0  0  0  0  0  0
   -5.5950    6.3902   -1.8461 H   0  0  0  0  0  0  0  0  0  0  0  0
   -4.4519    7.2629   -2.8870 H   0  0  0  0  0  0  0  0  0  0  0  0
   -4.7605    4.1989   -2.8515 H   0  0  0  0  0  0  0  0  0  0  0  0
   -5.4415    5.3372   -4.0115 H   0  0  0  0  0  0  0  0  0  0  0  0
   -3.1545    6.0855   -4.7286 H   0  0  0  0  0  0  0  0  0  0  0  0
   -2.4102    4.9266   -3.5533 H   0  0  0  0  0  0  0  0  0  0  0  0
   -4.8993    2.4186   -7.0571 H   0  0  0  0  0  0  0  0  0  0  0  0
   -5.7247    1.6958   -5.6517 H   0  0  0  0  0  0  0  0  0  0  0  0
   -4.2325    0.2102   -6.7509 H   0  0  0  0  0  0  0  0  0  0  0  0
   -2.8194    1.2733   -6.5190 H   0  0  0  0  0  0  0  0  0  0  0  0
   -2.9873   -0.6889   -4.9818 H   0  0  0  0  0  0  0  0  0  0  0  0
   -4.5611   -0.1420   -4.4093 H   0  0  0  0  0  0  0  0  0  0  0  0
   -1.4427    2.8719   -2.7426 H   0  0  0  0  0  0  0  0  0  0  0  0
   -1.6749    1.5818   -1.5416 H   0  0  0  0  0  0  0  0  0  0  0  0
    0.6421    0.8771   -1.5631 H   0  0  0  0  0  0  0  0  0  0  0  0
    0.4771    2.6120   -1.3274 H   0  0  0  0  0  0  0  0  0  0  0  0
    1.2554    3.1742   -3.5119 H   0  0  0  0  0  0  0  0  0  0  0  0
    2.3673    2.1600   -2.6125 H   0  0  0  0  0  0  0  0  0  0  0  0
    0.2242    0.3533   -7.2306 H   0  0  0  0  0  0  0  0  0  0  0  0
    2.0102    0.4657   -7.0370 H   0  0  0  0  0  0  0  0  0  0  0  0
    1.8084   -1.4739   -5.3066 H   0  0  0  0  0  0  0  0  0  0  0  0
    1.3390   -1.8840   -6.9717 H   0  0  0  0  0  0  0  0  0  0  0  0
   -0.4433   -1.0790   -4.6188 H   0  0  0  0  0  0  0  0  0  0  0  0
   -1.1022   -1.3218   -6.2804 H   0  0  0  0  0  0  0  0  0  0  0  0
   -1.6473   -5.4859   -5.1648 H   0  0  0  0  0  0  0  0  0  0  0  0
   -2.9892   -4.9446   -4.1039 H   0  0  0  0  0  0  0  0  0  0  0  0
   -0.0074   -4.8821   -3.2879 H   0  0  0  0  0  0  0  0  0  0  0  0
   -1.3280   -6.0351   -2.6600 H   0  0  0  0  0  0  0  0  0  0  0  0
   -2.6301   -4.1872   -1.9222 H   0  0  0  0  0  0  0  0  0  0  0  0
   -1.4832   -2.9820   -2.5427 H   0  0  0  0  0  0  0  0  0  0  0  0
   -0.7644   -3.2416    1.1254 H   0  0  0  0  0  0  0  0  0  0  0  0
  1  2  1  0
  2  3  1  0
  3  4  1  0
  4  5  1  0
  5  6  2  0
  5  7  1  0
  7  8  1  0
  8  9  1  0
  9 10  1  0
 10 11  1  0
 11 12  2  0
 11 13  1  0
 13 14  1  0
 14 15  1  0
 15 16  1  0
 16 17  1  0
 17 18  2  0
 17 19  1  0
 19 20  1  0
 20 21  1  0
 21 22  1  0
 22 23  1  0
 23 24  2  0
 23 25  1  0
 25 26  1  0
 26 27  1  0
 27 28  1  0
 28 29  1  0
 29 30  2  0
 29 31  1  0
 31 32  1  0
 32 33  1  0
 33 34  1  0
 34 35  1  0
 35 36  2  0
 35 37  1  0
 37 38  1  0
 38 39  1  0
 39 40  1  0
 40 41  1  0
 41 42  2  0
 41 43  1  0
 43 44  1  0
 44 45  1  0
 45 46  1  0
 46 47  1  0
 47 48  2  0
 47 49  1  0
 49 50  1  0
 50 51  1  0
 51 52  1  0
 52 53  1  0
 53 54  2  0
 53 55  1  0
 55 56  1  0
 56 57  1  0
 57 58  1  0
 58 59  1  0
 59 60  2  0
 59 61  1  0
  1 62  1  0
  2 63  1  0
  2 64  1  0
  3 65  1  0
  3 66  1  0
  4 67  1  0
  4 68  1  0
  8 69  1  0
  8 70  1  0
  9 71  1  0
  9 72  1  0
 10 73  1  0
 10 74  1  0
 14 75  1  0
 14 76  1  0
 15 77  1  0
 15 78  1  0
 16 79  1  0
 16 80  1  0
 20 81  1  0
 20 82  1  0
 21 83  1  0
 21 84  1  0
 22 85  1  0
 22 86  1  0
 26 87  1  0
 26 88  1  0
 27 89  1  0
 27 90  1  0
 28 91  1  0
 28 92  1  0
 32 93  1  0
 32 94  1  0
 33 95  1  0
 33 96  1  0
 34 97  1  0
 34 98  1  0
 38 99  1  0
 38100  1  0
 39101  1  0
 39102  1  0
 40103  1  0
 40104  1  0
 44105  1  0
 44106  1  0
 45107  1  0
 45108  1  0
 46109  1  0
 46110  1  0
 50111  1  0
 50112  1  0
 51113  1  0
 51114  1  0
 52115  1  0
 52116  1  0
 56117  1  0
 56118  1  0
 57119  1  0
 57120  1  0
 58121  1  0
 58122  1  0
 61123  1  0
M  END
$$$$
