
     RDKit          3D

193192  0  0  0  0  0  0  0  0999 V2000
   -0.4663   -1.0291    2.6403 N   0  0  0  0  0  0  0  0  0  0  0  0
   -0.6333   -1.5007    1.2891 C   0  0  0  0  0  0  0  0  0  0  0  0
   -2.0721   -1.3213    0.8747 C   0  0  0  0  0  0  0  0  0  0  0  0
   -2.3789   -1.8238   -0.4757 C   0  0  0  0  0  0  0  0  0  0  0  0
   -2.2916   -3.2667   -0.7913 C   0  0  0  0  0  0  0  0  0  0  0  0
   -3.1962   -4.1921   -0.0985 C   0  0  0  0  0  0  0  0  0  0  0  0
   -3.0514   -4.4079    1.3454 C   0  0  0  0  0  0  0  0  0  0  0  0
   -2.0155   -4.1389    2.0068 O   0  0  0  0  0  0  0  0  0  0  0  0
   -4.1283   -4.9633    2.1365 N   0  0  0  0  0  0  0  0  0  0  0  0
   -3.9359   -5.1920    3.5778 C   0  0  0  0  0  0  0  0  0  0  0  0
   -2.8300   -6.2632    3.6439 C   0  0  0  0  0  0  0  0  0  0  0  0
   -3.4242   -7.4427    2.9143 C   0  0  0  0  0  0  0  0  0  0  0  0
   -2.4688   -8.5973    2.7151 C   0  0  0  0  0  0  0  0  0  0  0  0
   -1.3303   -8.0658    1.8391 C   0  0  0  0  0  0  0  0  0  0  0  0
   -0.3557   -9.1305    1.4764 C   0  0  0  0  0  0  0  0  0  0  0  0
   -0.1480  -10.1621    2.1473 O   0  0  0  0  0  0  0  0  0  0  0  0
    0.3452   -8.8826    0.2339 N   0  0  0  0  0  0  0  0  0  0  0  0
    1.2862   -9.7517   -0.3621 C   0  0  0  0  0  0  0  0  0  0  0  0
    1.6259   -9.2903   -1.7884 C   0  0  0  0  0  0  0  0  0  0  0  0
    0.4469   -9.3452   -2.6862 C   0  0  0  0  0  0  0  0  0  0  0  0
   -0.7115   -8.4740   -2.4788 C   0  0  0  0  0  0  0  0  0  0  0  0
   -0.6312   -7.0105   -2.7513 C   0  0  0  0  0  0  0  0  0  0  0  0
    0.6230   -6.4292   -3.0682 C   0  0  0  0  0  0  0  0  0  0  0  0
    1.5290   -7.1353   -3.6530 O   0  0  0  0  0  0  0  0  0  0  0  0
    1.1110   -5.0615   -2.8306 N   0  0  0  0  0  0  0  0  0  0  0  0
    2.4267   -4.9034   -3.3107 C   0  0  0  0  0  0  0  0  0  0  0  0
    3.0658   -3.5331   -3.1354 C   0  0  0  0  0  0  0  0  0  0  0  0
    4.4058   -3.6926   -3.7668 C   0  0  0  0  0  0  0  0  0  0  0  0
    5.4564   -2.7433   -3.9344 C   0  0  0  0  0  0  0  0  0  0  0  0
    6.2039   -2.0424   -2.9075 C   0  0  0  0  0  0  0  0  0  0  0  0
    5.6793   -0.9320   -2.0972 C   0  0  0  0  0  0  0  0  0  0  0  0
    4.6377   -0.2940   -2.2732 O   0  0  0  0  0  0  0  0  0  0  0  0
    6.5248   -0.5657   -0.9972 N   0  0  0  0  0  0  0  0  0  0  0  0
    6.4947    0.4489   -0.0692 C   0  0  0  0  0  0  0  0  0  0  0  0
    5.4783    0.9390    0.8241 C   0  0  0  0  0  0  0  0  0  0  0  0
    4.7507    0.0036    1.7425 C   0  0  0  0  0  0  0  0  0  0  0  0
    4.0102    0.8598    2.7488 C   0  0  0  0  0  0  0  0  0  0  0  0
    3.0516    0.1502    3.6557 C   0  0  0  0  0  0  0  0  0  0  0  0
    2.6277    1.0354    4.7496 C   0  0  0  0  0  0  0  0  0  0  0  0
    3.5868    1.6972    5.3121 O   0  0  0  0  0  0  0  0  0  0  0  0
    1.3423    1.2874    5.2900 N   0  0  0  0  0  0  0  0  0  0  0  0
    1.3261    2.1709    6.4101 C   0  0  0  0  0  0  0  0  0  0  0  0
    0.0780    2.6589    7.0003 C   0  0  0  0  0  0  0  0  0  0  0  0
   -0.7840    3.5721    6.2340 C   0  0  0  0  0  0  0  0  0  0  0  0
   -1.4995    3.2191    5.0201 C   0  0  0  0  0  0  0  0  0  0  0  0
   -2.6388    2.2116    5.1378 C   0  0  0  0  0  0  0  0  0  0  0  0
   -3.2102    2.1168    3.8019 C   0  0  0  0  0  0  0  0  0  0  0  0
   -2.4720    2.4354    2.8176 O   0  0  0  0  0  0  0  0  0  0  0  0
   -4.5446    1.7081    3.4750 N   0  0  0  0  0  0  0  0  0  0  0  0
   -4.8194    1.7289    2.0352 C   0  0  0  0  0  0  0  0  0  0  0  0
   -6.1714    1.3793    1.6096 C   0  0  0  0  0  0  0  0  0  0  0  0
   -7.3718    2.1180    1.9624 C   0  0  0  0  0  0  0  0  0  0  0  0
   -7.6857    3.4834    1.5260 C   0  0  0  0  0  0  0  0  0  0  0  0
   -7.8332    3.6772    0.0169 C   0  0  0  0  0  0  0  0  0  0  0  0
   -6.6507    3.5160   -0.7457 C   0  0  0  0  0  0  0  0  0  0  0  0
   -5.5184    3.8186   -0.2009 O   0  0  0  0  0  0  0  0  0  0  0  0
   -6.4648    3.0417   -2.0921 N   0  0  0  0  0  0  0  0  0  0  0  0
   -5.0903    2.9899   -2.4713 C   0  0  0  0  0  0  0  0  0  0  0  0
   -4.7012    2.4948   -3.8185 C   0  0  0  0  0  0  0  0  0  0  0  0
   -3.1777    2.4912   -3.9016 C   0  0  0  0  0  0  0  0  0  0  0  0
   -2.6205    2.0080   -5.2103 C   0  0  0  0  0  0  0  0  0  0  0  0
   -1.0863    2.0470   -5.0328 C   0  0  0  0  0  0  0  0  0  0  0  0
   -0.7075    3.4402   -4.8007 C   0  0  0  0  0  0  0  0  0  0  0  0
   -1.3275    4.4479   -5.2813 O   0  0  0  0  0  0  0  0  0  0  0  0
    0.4100    3.7617   -3.9958 N   0  0  0  0  0  0  0  0  0  0  0  0
    0.8109    5.1687   -3.7901 C   0  0  0  0  0  0  0  0  0  0  0  0
    1.3230    5.7993   -5.0330 C   0  0  0  0  0  0  0  0  0  0  0  0
    2.4981    5.2429   -5.7008 C   0  0  0  0  0  0  0  0  0  0  0  0
    3.8645    5.2617   -5.2041 C   0  0  0  0  0  0  0  0  0  0  0  0
    4.2500    4.7290   -3.8585 C   0  0  0  0  0  0  0  0  0  0  0  0
    3.7840    5.5456   -2.7421 C   0  0  0  0  0  0  0  0  0  0  0  0
    3.4870    6.7623   -3.0251 O   0  0  0  0  0  0  0  0  0  0  0  0
    3.6085    5.1579   -1.4031 N   0  0  0  0  0  0  0  0  0  0  0  0
    3.0817    6.2073   -0.5113 C   0  0  0  0  0  0  0  0  0  0  0  0
    2.9270    5.6732    0.8557 C   0  0  0  0  0  0  0  0  0  0  0  0
    2.3698    6.5588    1.8874 C   0  0  0  0  0  0  0  0  0  0  0  0
    0.9743    7.0432    1.8462 C   0  0  0  0  0  0  0  0  0  0  0  0
    0.5388    7.8333    0.6850 C   0  0  0  0  0  0  0  0  0  0  0  0
   -0.9170    8.2439    1.0061 C   0  0  0  0  0  0  0  0  0  0  0  0
   -1.4432    9.0434    0.2217 O   0  0  0  0  0  0  0  0  0  0  0  0
   -1.5670    7.7448    2.0923 O   0  0  0  0  0  0  0  0  0  0  0  0
   -0.4527   -1.8005    3.3562 H   0  0  0  0  0  0  0  0  0  0  0  0
   -1.2608   -0.3780    2.9120 H   0  0  0  0  0  0  0  0  0  0  0  0
   -0.2159   -2.4781    1.0672 H   0  0  0  0  0  0  0  0  0  0  0  0
   -0.0440   -0.7694    0.6214 H   0  0  0  0  0  0  0  0  0  0  0  0
   -2.1974   -0.1722    0.8753 H   0  0  0  0  0  0  0  0  0  0  0  0
   -2.7768   -1.6463    1.6706 H   0  0  0  0  0  0  0  0  0  0  0  0
   -1.7091   -1.2370   -1.1850 H   0  0  0  0  0  0  0  0  0  0  0  0
   -3.4030   -1.4853   -0.8258 H   0  0  0  0  0  0  0  0  0  0  0  0
   -2.4916   -3.3710   -1.9036 H   0  0  0  0  0  0  0  0  0  0  0  0
   -1.2017   -3.5850   -0.7132 H   0  0  0  0  0  0  0  0  0  0  0  0
   -4.2650   -3.8581   -0.3418 H   0  0  0  0  0  0  0  0  0  0  0  0
   -3.1788   -5.2098   -0.6334 H   0  0  0  0  0  0  0  0  0  0  0  0
   -5.0339   -5.2130    1.7056 H   0  0  0  0  0  0  0  0  0  0  0  0
   -3.5390   -4.2873    4.0773 H   0  0  0  0  0  0  0  0  0  0  0  0
   -4.8571   -5.5311    4.0486 H   0  0  0  0  0  0  0  0  0  0  0  0
   -2.7019   -6.5275    4.7454 H   0  0  0  0  0  0  0  0  0  0  0  0
   -1.9130   -5.8498    3.2476 H   0  0  0  0  0  0  0  0  0  0  0  0
   -4.2421   -7.8408    3.5776 H   0  0  0  0  0  0  0  0  0  0  0  0
   -3.8698   -7.1520    1.9358 H   0  0  0  0  0  0  0  0  0  0  0  0
   -2.0633   -8.9315    3.6874 H   0  0  0  0  0  0  0  0  0  0  0  0
   -2.9741   -9.4592    2.2396 H   0  0  0  0  0  0  0  0  0  0  0  0
   -1.7197   -7.5473    0.9462 H   0  0  0  0  0  0  0  0  0  0  0  0
   -0.7904   -7.3322    2.4817 H   0  0  0  0  0  0  0  0  0  0  0  0
    0.1699   -7.9533   -0.2094 H   0  0  0  0  0  0  0  0  0  0  0  0
    2.2583   -9.6342    0.2157 H   0  0  0  0  0  0  0  0  0  0  0  0
    1.0721  -10.8203   -0.3222 H   0  0  0  0  0  0  0  0  0  0  0  0
    2.3548  -10.0626   -2.1660 H   0  0  0  0  0  0  0  0  0  0  0  0
    2.1968   -8.3749   -1.7020 H   0  0  0  0  0  0  0  0  0  0  0  0
    0.0470  -10.4296   -2.5829 H   0  0  0  0  0  0  0  0  0  0  0  0
    0.8124   -9.3497   -3.7465 H   0  0  0  0  0  0  0  0  0  0  0  0
   -1.2760   -8.7233   -1.5463 H   0  0  0  0  0  0  0  0  0  0  0  0
   -1.4928   -8.8888   -3.2581 H   0  0  0  0  0  0  0  0  0  0  0  0
   -1.2211   -6.5190   -1.9151 H   0  0  0  0  0  0  0  0  0  0  0  0
   -1.3266   -6.8093   -3.6633 H   0  0  0  0  0  0  0  0  0  0  0  0
    0.4742   -4.4058   -2.3720 H   0  0  0  0  0  0  0  0  0  0  0  0
    2.5169   -5.1167   -4.4160 H   0  0  0  0  0  0  0  0  0  0  0  0
    3.1040   -5.6939   -2.8507 H   0  0  0  0  0  0  0  0  0  0  0  0
    2.4162   -2.7953   -3.6449 H   0  0  0  0  0  0  0  0  0  0  0  0
    3.0724   -3.3151   -2.0692 H   0  0  0  0  0  0  0  0  0  0  0  0
    4.1814   -4.1557   -4.8297 H   0  0  0  0  0  0  0  0  0  0  0  0
    4.8234   -4.6882   -3.2901 H   0  0  0  0  0  0  0  0  0  0  0  0
    5.0710   -1.8605   -4.6414 H   0  0  0  0  0  0  0  0  0  0  0  0
    6.2570   -3.1428   -4.7040 H   0  0  0  0  0  0  0  0  0  0  0  0
    6.6163   -2.8555   -2.2013 H   0  0  0  0  0  0  0  0  0  0  0  0
    7.2218   -1.6734   -3.3375 H   0  0  0  0  0  0  0  0  0  0  0  0
    7.3731   -1.2672   -0.9106 H   0  0  0  0  0  0  0  0  0  0  0  0
    7.5071    0.3583    0.5315 H   0  0  0  0  0  0  0  0  0  0  0  0
    6.8819    1.3975   -0.7034 H   0  0  0  0  0  0  0  0  0  0  0  0
    5.9686    1.7148    1.5090 H   0  0  0  0  0  0  0  0  0  0  0  0
    4.6537    1.5023    0.2729 H   0  0  0  0  0  0  0  0  0  0  0  0
    3.9640   -0.5114    1.1353 H   0  0  0  0  0  0  0  0  0  0  0  0
    5.4606   -0.7029    2.1838 H   0  0  0  0  0  0  0  0  0  0  0  0
    4.7241    1.5020    3.2973 H   0  0  0  0  0  0  0  0  0  0  0  0
    3.3913    1.5710    2.1238 H   0  0  0  0  0  0  0  0  0  0  0  0
    2.1797   -0.2594    3.0828 H   0  0  0  0  0  0  0  0  0  0  0  0
    3.5967   -0.7425    4.0833 H   0  0  0  0  0  0  0  0  0  0  0  0
    0.5463    0.8252    4.8392 H   0  0  0  0  0  0  0  0  0  0  0  0
    1.8386    1.5652    7.2495 H   0  0  0  0  0  0  0  0  0  0  0  0
    2.0776    2.9937    6.2272 H   0  0  0  0  0  0  0  0  0  0  0  0
    0.3000    3.1482    7.9933 H   0  0  0  0  0  0  0  0  0  0  0  0
   -0.5096    1.7174    7.3098 H   0  0  0  0  0  0  0  0  0  0  0  0
   -0.0985    4.4566    5.9446 H   0  0  0  0  0  0  0  0  0  0  0  0
   -1.4925    4.1467    6.9545 H   0  0  0  0  0  0  0  0  0  0  0  0
   -1.9763    4.1514    4.6123 H   0  0  0  0  0  0  0  0  0  0  0  0
   -0.8110    2.9041    4.2009 H   0  0  0  0  0  0  0  0  0  0  0  0
   -3.3800    2.7260    5.8270 H   0  0  0  0  0  0  0  0  0  0  0  0
   -2.3506    1.2901    5.6380 H   0  0  0  0  0  0  0  0  0  0  0  0
   -5.2116    1.4370    4.2042 H   0  0  0  0  0  0  0  0  0  0  0  0
   -4.2899    2.5749    1.5616 H   0  0  0  0  0  0  0  0  0  0  0  0
   -4.1691    0.8396    1.6742 H   0  0  0  0  0  0  0  0  0  0  0  0
   -6.1353    1.1583    0.4714 H   0  0  0  0  0  0  0  0  0  0  0  0
   -6.3374    0.3005    1.9793 H   0  0  0  0  0  0  0  0  0  0  0  0
   -8.2519    1.4654    1.5841 H   0  0  0  0  0  0  0  0  0  0  0  0
   -7.5783    2.0520    3.0846 H   0  0  0  0  0  0  0  0  0  0  0  0
   -7.0349    4.2834    1.9286 H   0  0  0  0  0  0  0  0  0  0  0  0
   -8.7039    3.7493    1.9510 H   0  0  0  0  0  0  0  0  0  0  0  0
   -8.2483    4.7142   -0.1897 H   0  0  0  0  0  0  0  0  0  0  0  0
   -8.6194    2.9960   -0.3474 H   0  0  0  0  0  0  0  0  0  0  0  0
   -7.2957    2.7912   -2.6478 H   0  0  0  0  0  0  0  0  0  0  0  0
   -4.5852    2.3004   -1.7215 H   0  0  0  0  0  0  0  0  0  0  0  0
   -4.5979    4.0082   -2.3760 H   0  0  0  0  0  0  0  0  0  0  0  0
   -5.0800    3.0980   -4.6632 H   0  0  0  0  0  0  0  0  0  0  0  0
   -5.0179    1.4443   -4.0161 H   0  0  0  0  0  0  0  0  0  0  0  0
   -2.8184    3.5443   -3.7423 H   0  0  0  0  0  0  0  0  0  0  0  0
   -2.7512    1.8208   -3.1093 H   0  0  0  0  0  0  0  0  0  0  0  0
   -2.8995    0.9863   -5.4866 H   0  0  0  0  0  0  0  0  0  0  0  0
   -2.8221    2.7025   -6.0482 H   0  0  0  0  0  0  0  0  0  0  0  0
   -0.8125    1.4140   -4.1779 H   0  0  0  0  0  0  0  0  0  0  0  0
   -0.6378    1.6303   -5.9437 H   0  0  0  0  0  0  0  0  0  0  0  0
    0.9420    3.0023   -3.5509 H   0  0  0  0  0  0  0  0  0  0  0  0
    1.2246    5.3947   -2.8394 H   0  0  0  0  0  0  0  0  0  0  0  0
   -0.2597    5.6883   -3.6706 H   0  0  0  0  0  0  0  0  0  0  0  0
    1.5202    6.9114   -4.8505 H   0  0  0  0  0  0  0  0  0  0  0  0
    0.4574    5.8226   -5.7659 H   0  0  0  0  0  0  0  0  0  0  0  0
    2.2782    4.1650   -6.0659 H   0  0  0  0  0  0  0  0  0  0  0  0
    2.5605    5.7716   -6.7466 H   0  0  0  0  0  0  0  0  0  0  0  0
    4.2078    6.3731   -5.2161 H   0  0  0  0  0  0  0  0  0  0  0  0
    4.6014    4.8368   -5.9749 H   0  0  0  0  0  0  0  0  0  0  0  0
    3.8611    3.6659   -3.7201 H   0  0  0  0  0  0  0  0  0  0  0  0
    5.3710    4.5687   -3.8606 H   0  0  0  0  0  0  0  0  0  0  0  0
    3.8408    4.2037   -1.0913 H   0  0  0  0  0  0  0  0  0  0  0  0
    2.2374    6.6610   -0.9834 H   0  0  0  0  0  0  0  0  0  0  0  0
    3.8909    7.0131   -0.4661 H   0  0  0  0  0  0  0  0  0  0  0  0
    2.2881    4.7392    0.8068 H   0  0  0  0  0  0  0  0  0  0  0  0
    3.9568    5.3500    1.1818 H   0  0  0  0  0  0  0  0  0  0  0  0
    2.4984    6.0737    2.9053 H   0  0  0  0  0  0  0  0  0  0  0  0
    3.0640    7.4740    1.9944 H   0  0  0  0  0  0  0  0  0  0  0  0
    0.8262    7.6955    2.7624 H   0  0  0  0  0  0  0  0  0  0  0  0
    0.2763    6.1496    1.9599 H   0  0  0  0  0  0  0  0  0  0  0  0
    0.3384    7.2204   -0.2388 H   0  0  0  0  0  0  0  0  0  0  0  0
    1.1484    8.7107    0.5234 H   0  0  0  0  0  0  0  0  0  0  0  0
   -2.5185    8.0104    2.3160 H   0  0  0  0  0  0  0  0  0  0  0  0
  1  2  1  0
  2  3  1  0
  3  4  1  0
  4  5  1  0
  5  6  1  0
  6  7  1  0
  7  8  2  0
  7  9  1  0
  9 10  1  0
 10 11  1  0
 11 12  1  0
 12 13  1  0
 13 14  1  0
 14 15  1  0
 15 16  2  0
 15 17  1  0
 17 18  1  0
 18 19  1  0
 19 20  1  0
 20 21  1  0
 21 22  1  0
 22 23  1  0
 23 24  2  0
 23 25  1  0
 25 26  1  0
 26 27  1  0
 27 28  1  0
 28 29  1  0
 29 30  1  0
 30 31  1  0
 31 32  2  0
 31 33  1  0
 33 34  1  0
 34 35  1  0
 35 36  1  0
 36 37  1  0
 37 38  1  0
 38 39  1  0
 39 40  2  0
 39 41  1  0
 41 42  1  0
 42 43  1  0
 43 44  1  0
 44 45  1  0
 45 46  1  0
 46 47  1  0
 47 48  2  0
 47 49  1  0
 49 50  1  0
 50 51  1  0
 51 52  1  0
 52 53  1  0
 53 54  1  0
 54 55  1  0
 55 56  2  0
 55 57  1  0
 57 58  1  0
 58 59  1  0
 59 60  1  0
 60 61  1  0
 61 62  1  0
 62 63  1  0
 63 64  2  0
 63 65  1  0
 65 66  1  0
 66 67  1  0
 67 68  1  0
 68 69  1  0
 69 70  1  0
 70 71  1  0
 71 72  2  0
 71 73  1  0
 73 74  1  0
 74 75  1  0
 75 76  1  0
 76 77  1  0
 77 78  1  0
 78 79  1  0
 79 80  2  0
 79 81  1  0
  1 82  1  0
  1 83  1  0
  2 84  1  0
  2 85  1  0
  3 86  1  0
  3 87  1  0
  4 88  1  0
  4 89  1  0
  5 90  1  0
  5 91  1  0
  6 92  1  0
  6 93  1  0
  9 94  1  0
 10 95  1  0
 10 96  1  0
 11 97  1  0
 11 98  1  0
 12 99  1  0
 12100  1  0
 13101  1  0
 13102  1  0
 14103  1  0
 14104  1  0
 17105  1  0
 18106  1  0
 18107  1  0
 19108  1  0
 19109  1  0
 20110  1  0
 20111  1  0
 21112  1  0
 21113  1  0
 22114  1  0
 22115  1  0
 25116  1  0
 26117  1  0
 26118  1  0
 27119  1  0
 27120  1  0
 28121  1  0
 28122  1  0
 29123  1  0
 29124  1  0
 30125  1  0
 30126  1  0
 33127  1  0
 34128  1  0
 34129  1  0
 35130  1  0
 35131  1  0
 36132  1  0
 36133  1  0
 37134  1  0
 37135  1  0
 38136  1  0
 38137  1  0
 41138  1  0
 42139  1  0
 42140  1  0
 43141  1  0
 43142  1  0
 44143  1  0
 44144  1  0
 45145  1  0
 45146  1  0
 46147  1  0
 46148  1  0
 49149  1  0
 50150  1  0
 50151  1  0
 51152  1  0
 51153  1  0
 52154  1  0
 52155  1  0
 53156  1  0
 53157  1  0
 54158  1  0
 54159  1  0
 57160  1  0
 58161  1  0
 58162  1  0
 59163  1  0
 59164  1  0
 60165  1  0
 60166  1  0
 61167  1  0
 61168  1  0
 62169  1  0
 62170  1  0
 65171  1  0
 66172  1  0
 66173  1  0
 67174  1  0
 67175  1  0
 68176  1  0
 68177  1  0
 69178  1  0
 69179  1  0
 70180  1  0
 70181  1  0
 73182  1  0
 74183  1  0
 74184  1  0
 75185  1  0
 75186  1  0
 76187  1  0
 76188  1  0
 77189  1  0
 77190  1  0
 78191  1  0
 78192  1  0
 81193  1  0
M  END
$$$$
