
     RDKit          3D

243242  0  0  0  0  0  0  0  0999 V2000
    3.7898    6.1742    3.9814 O   0  0  0  0  0  0  0  0  0  0  0  0
    3.7132    5.9285    2.6100 C   0  0  0  0  0  0  0  0  0  0  0  0
    2.3108    5.5065    2.2043 C   0  0  0  0  0  0  0  0  0  0  0  0
    2.2347    5.2407    0.7123 C   0  0  0  0  0  0  0  0  0  0  0  0
    0.8820    4.7916    0.2876 C   0  0  0  0  0  0  0  0  0  0  0  0
    0.8355    4.5284   -1.1200 O   0  0  0  0  0  0  0  0  0  0  0  0
   -0.3493    4.0997   -1.7133 C   0  0  0  0  0  0  0  0  0  0  0  0
   -1.3332    3.9673   -0.9202 O   0  0  0  0  0  0  0  0  0  0  0  0
   -0.5170    3.8070   -3.1419 C   0  0  0  0  0  0  0  0  0  0  0  0
   -0.3469    2.3870   -3.5615 C   0  0  0  0  0  0  0  0  0  0  0  0
   -1.2767    1.4450   -2.9393 C   0  0  0  0  0  0  0  0  0  0  0  0
   -2.1581    1.8636   -2.1390 O   0  0  0  0  0  0  0  0  0  0  0  0
   -1.2790    0.0591   -3.1561 O   0  0  0  0  0  0  0  0  0  0  0  0
   -2.2201   -0.7511   -2.4854 C   0  0  0  0  0  0  0  0  0  0  0  0
   -2.0217   -2.1919   -2.8896 C   0  0  0  0  0  0  0  0  0  0  0  0
   -3.0137   -3.0946   -2.1498 C   0  0  0  0  0  0  0  0  0  0  0  0
   -2.8438   -4.5224   -2.5639 C   0  0  0  0  0  0  0  0  0  0  0  0
   -1.5563   -5.0378   -2.3362 O   0  0  0  0  0  0  0  0  0  0  0  0
   -1.2639   -6.3733   -2.6806 C   0  0  0  0  0  0  0  0  0  0  0  0
   -2.0975   -7.1553   -3.1758 O   0  0  0  0  0  0  0  0  0  0  0  0
    0.1646   -6.7504   -2.3881 C   0  0  0  0  0  0  0  0  0  0  0  0
    0.6348   -6.1377   -1.1196 C   0  0  0  0  0  0  0  0  0  0  0  0
    2.0089   -6.3298   -0.7723 C   0  0  0  0  0  0  0  0  0  0  0  0
    2.3742   -6.2421    0.4503 O   0  0  0  0  0  0  0  0  0  0  0  0
    3.0976   -6.6148   -1.6433 O   0  0  0  0  0  0  0  0  0  0  0  0
    4.3267   -6.7275   -0.9851 C   0  0  0  0  0  0  0  0  0  0  0  0
    5.5608   -7.0460   -1.6763 C   0  0  0  0  0  0  0  0  0  0  0  0
    6.1618   -6.2248   -2.7185 C   0  0  0  0  0  0  0  0  0  0  0  0
    5.4484   -6.0572   -3.9844 C   0  0  0  0  0  0  0  0  0  0  0  0
    4.2520   -5.4372   -3.9924 O   0  0  0  0  0  0  0  0  0  0  0  0
    3.9442   -4.1624   -3.6117 C   0  0  0  0  0  0  0  0  0  0  0  0
    4.8385   -3.4261   -3.1631 O   0  0  0  0  0  0  0  0  0  0  0  0
    2.5124   -3.7582   -3.7822 C   0  0  0  0  0  0  0  0  0  0  0  0
    2.2821   -2.4089   -3.1709 C   0  0  0  0  0  0  0  0  0  0  0  0
    2.5528   -2.3980   -1.7220 C   0  0  0  0  0  0  0  0  0  0  0  0
    3.1376   -3.4010   -1.2149 O   0  0  0  0  0  0  0  0  0  0  0  0
    2.2211   -1.3883   -0.8448 O   0  0  0  0  0  0  0  0  0  0  0  0
    2.5662   -1.5545    0.5516 C   0  0  0  0  0  0  0  0  0  0  0  0
    2.0817   -0.3844    1.3239 C   0  0  0  0  0  0  0  0  0  0  0  0
    2.4315   -0.4424    2.7838 C   0  0  0  0  0  0  0  0  0  0  0  0
    3.9359   -0.4670    2.9945 C   0  0  0  0  0  0  0  0  0  0  0  0
    4.5495    0.6477    2.4472 O   0  0  0  0  0  0  0  0  0  0  0  0
    5.8937    0.9864    2.4834 C   0  0  0  0  0  0  0  0  0  0  0  0
    6.6227    0.1276    3.1154 O   0  0  0  0  0  0  0  0  0  0  0  0
    6.4470    2.2086    1.8645 C   0  0  0  0  0  0  0  0  0  0  0  0
    5.4705    2.6935    0.8044 C   0  0  0  0  0  0  0  0  0  0  0  0
    5.3325    1.7656   -0.3281 C   0  0  0  0  0  0  0  0  0  0  0  0
    6.2266    0.8372   -0.4665 O   0  0  0  0  0  0  0  0  0  0  0  0
    4.3454    1.7538   -1.2849 O   0  0  0  0  0  0  0  0  0  0  0  0
    4.2953    0.8386   -2.3501 C   0  0  0  0  0  0  0  0  0  0  0  0
    5.4067    1.1731   -3.3506 C   0  0  0  0  0  0  0  0  0  0  0  0
    5.4486    0.1425   -4.4341 C   0  0  0  0  0  0  0  0  0  0  0  0
    6.4750    0.4020   -5.4786 C   0  0  0  0  0  0  0  0  0  0  0  0
    7.7571    0.5781   -4.8749 O   0  0  0  0  0  0  0  0  0  0  0  0
    8.1484    1.8472   -4.4745 C   0  0  0  0  0  0  0  0  0  0  0  0
    7.2954    2.7698   -4.7646 O   0  0  0  0  0  0  0  0  0  0  0  0
    9.3579    2.2790   -3.7915 C   0  0  0  0  0  0  0  0  0  0  0  0
    9.3769    3.7824   -3.5618 C   0  0  0  0  0  0  0  0  0  0  0  0
    8.2702    4.2925   -2.7570 C   0  0  0  0  0  0  0  0  0  0  0  0
    8.4706    4.5178   -1.5063 O   0  0  0  0  0  0  0  0  0  0  0  0
    6.9933    4.5624   -3.1995 O   0  0  0  0  0  0  0  0  0  0  0  0
    5.9412    5.0520   -2.3774 C   0  0  0  0  0  0  0  0  0  0  0  0
    6.2235    6.3881   -1.8280 C   0  0  0  0  0  0  0  0  0  0  0  0
    5.1142    6.8577   -0.8655 C   0  0  0  0  0  0  0  0  0  0  0  0
    5.4348    8.2845   -0.4610 C   0  0  0  0  0  0  0  0  0  0  0  0
    4.7018    8.9451    0.4232 O   0  0  0  0  0  0  0  0  0  0  0  0
    3.5369    9.3871    0.8778 C   0  0  0  0  0  0  0  0  0  0  0  0
    2.4774    9.0815    0.2560 O   0  0  0  0  0  0  0  0  0  0  0  0
    3.5498   10.2377    2.0916 C   0  0  0  0  0  0  0  0  0  0  0  0
    3.2387    9.6967    3.4077 C   0  0  0  0  0  0  0  0  0  0  0  0
    1.8503    9.2555    3.6555 C   0  0  0  0  0  0  0  0  0  0  0  0
    0.9647    9.1166    2.7813 O   0  0  0  0  0  0  0  0  0  0  0  0
    1.5298    8.9976    4.9550 O   0  0  0  0  0  0  0  0  0  0  0  0
    0.4113    8.6268    5.6079 C   0  0  0  0  0  0  0  0  0  0  0  0
   -0.3580    7.3584    5.2661 C   0  0  0  0  0  0  0  0  0  0  0  0
   -1.5605    7.3040    6.1977 C   0  0  0  0  0  0  0  0  0  0  0  0
   -2.5045    6.2425    5.9979 C   0  0  0  0  0  0  0  0  0  0  0  0
   -2.1016    4.8658    6.1131 O   0  0  0  0  0  0  0  0  0  0  0  0
   -3.2009    3.9686    6.0136 C   0  0  0  0  0  0  0  0  0  0  0  0
   -4.3070    4.5394    5.8621 O   0  0  0  0  0  0  0  0  0  0  0  0
   -3.1622    2.5173    6.0704 C   0  0  0  0  0  0  0  0  0  0  0  0
   -4.6403    2.0978    6.0347 C   0  0  0  0  0  0  0  0  0  0  0  0
   -4.8796    0.6462    5.9499 C   0  0  0  0  0  0  0  0  0  0  0  0
   -4.4206   -0.2255    6.7147 O   0  0  0  0  0  0  0  0  0  0  0  0
   -5.6726    0.2369    4.9440 O   0  0  0  0  0  0  0  0  0  0  0  0
   -6.1613   -0.9626    4.4841 C   0  0  0  0  0  0  0  0  0  0  0  0
   -6.8903   -0.5924    3.2221 C   0  0  0  0  0  0  0  0  0  0  0  0
   -7.4553   -1.7316    2.4123 C   0  0  0  0  0  0  0  0  0  0  0  0
   -8.0989   -0.9898    1.2394 C   0  0  0  0  0  0  0  0  0  0  0  0
   -8.6228   -1.6135    0.2135 O   0  0  0  0  0  0  0  0  0  0  0  0
   -9.5405   -2.5224   -0.1028 C   0  0  0  0  0  0  0  0  0  0  0  0
  -10.2204   -3.0818    0.7689 O   0  0  0  0  0  0  0  0  0  0  0  0
   -9.7065   -2.8285   -1.5994 C   0  0  0  0  0  0  0  0  0  0  0  0
   -8.9485   -1.8235   -2.3941 C   0  0  0  0  0  0  0  0  0  0  0  0
   -9.0226   -1.9957   -3.8388 C   0  0  0  0  0  0  0  0  0  0  0  0
  -10.0611   -1.7398   -4.4918 O   0  0  0  0  0  0  0  0  0  0  0  0
   -7.9200   -2.4409   -4.5115 O   0  0  0  0  0  0  0  0  0  0  0  0
   -7.7890   -2.6246   -5.8944 C   0  0  0  0  0  0  0  0  0  0  0  0
   -6.4088   -3.1786   -6.1624 C   0  0  0  0  0  0  0  0  0  0  0  0
   -6.1564   -4.5307   -5.6157 C   0  0  0  0  0  0  0  0  0  0  0  0
   -6.3660   -4.7048   -4.1259 C   0  0  0  0  0  0  0  0  0  0  0  0
   -6.0211   -6.0444   -3.7665 O   0  0  0  0  0  0  0  0  0  0  0  0
   -6.1811   -6.5138   -2.4419 C   0  0  0  0  0  0  0  0  0  0  0  0
   -6.6506   -5.7125   -1.6129 O   0  0  0  0  0  0  0  0  0  0  0  0
   -5.7710   -7.8952   -2.2041 C   0  0  0  0  0  0  0  0  0  0  0  0
   -5.8965   -8.3337   -0.7981 C   0  0  0  0  0  0  0  0  0  0  0  0
   -5.0771   -7.5539    0.1907 C   0  0  0  0  0  0  0  0  0  0  0  0
   -4.9172   -6.3102    0.1034 O   0  0  0  0  0  0  0  0  0  0  0  0
   -4.4979   -8.2142    1.1906 O   0  0  0  0  0  0  0  0  0  0  0  0
   -3.7115   -8.0249    2.2666 C   0  0  0  0  0  0  0  0  0  0  0  0
   -2.3730   -7.4152    2.1797 C   0  0  0  0  0  0  0  0  0  0  0  0
   -2.2870   -5.9817    1.7322 C   0  0  0  0  0  0  0  0  0  0  0  0
   -3.0925   -5.1132    2.6825 C   0  0  0  0  0  0  0  0  0  0  0  0
   -3.0183   -3.7653    2.3245 O   0  0  0  0  0  0  0  0  0  0  0  0
   -1.8781   -2.9954    2.2205 C   0  0  0  0  0  0  0  0  0  0  0  0
   -0.7605   -3.5161    2.4453 O   0  0  0  0  0  0  0  0  0  0  0  0
   -2.0246   -1.5669    1.8547 C   0  0  0  0  0  0  0  0  0  0  0  0
   -3.4531   -1.1597    1.6754 C   0  0  0  0  0  0  0  0  0  0  0  0
   -3.5840    0.2809    1.3608 C   0  0  0  0  0  0  0  0  0  0  0  0
   -3.3691    1.0703    2.3549 O   0  0  0  0  0  0  0  0  0  0  0  0
   -3.9062    0.8184    0.1413 O   0  0  0  0  0  0  0  0  0  0  0  0
    4.7046    6.3695    4.2474 H   0  0  0  0  0  0  0  0  0  0  0  0
    4.4380    5.1454    2.2981 H   0  0  0  0  0  0  0  0  0  0  0  0
    4.0237    6.8527    2.0906 H   0  0  0  0  0  0  0  0  0  0  0  0
    1.9525    4.6324    2.7351 H   0  0  0  0  0  0  0  0  0  0  0  0
    1.6650    6.3917    2.4031 H   0  0  0  0  0  0  0  0  0  0  0  0
    2.4848    6.1906    0.1793 H   0  0  0  0  0  0  0  0  0  0  0  0
    3.0157    4.5284    0.4880 H   0  0  0  0  0  0  0  0  0  0  0  0
    0.1393    5.6001    0.5012 H   0  0  0  0  0  0  0  0  0  0  0  0
    0.5164    3.9054    0.8539 H   0  0  0  0  0  0  0  0  0  0  0  0
    0.2466    4.4036   -3.7275 H   0  0  0  0  0  0  0  0  0  0  0  0
   -1.4882    4.1818   -3.5413 H   0  0  0  0  0  0  0  0  0  0  0  0
   -0.5272    2.3262   -4.6881 H   0  0  0  0  0  0  0  0  0  0  0  0
    0.7413    2.1056   -3.4410 H   0  0  0  0  0  0  0  0  0  0  0  0
   -2.0121   -0.6992   -1.3976 H   0  0  0  0  0  0  0  0  0  0  0  0
   -3.2763   -0.4414   -2.6442 H   0  0  0  0  0  0  0  0  0  0  0  0
   -2.2039   -2.3342   -3.9703 H   0  0  0  0  0  0  0  0  0  0  0  0
   -0.9705   -2.5471   -2.6663 H   0  0  0  0  0  0  0  0  0  0  0  0
   -4.0218   -2.7443   -2.4806 H   0  0  0  0  0  0  0  0  0  0  0  0
   -2.9439   -2.9577   -1.0695 H   0  0  0  0  0  0  0  0  0  0  0  0
   -3.5438   -5.1612   -1.9539 H   0  0  0  0  0  0  0  0  0  0  0  0
   -3.1683   -4.6563   -3.6218 H   0  0  0  0  0  0  0  0  0  0  0  0
    0.1207   -7.8736   -2.2424 H   0  0  0  0  0  0  0  0  0  0  0  0
    0.8307   -6.5929   -3.2178 H   0  0  0  0  0  0  0  0  0  0  0  0
    0.3157   -5.0584   -1.0203 H   0  0  0  0  0  0  0  0  0  0  0  0
   -0.0074   -6.6387   -0.3011 H   0  0  0  0  0  0  0  0  0  0  0  0
    4.5040   -5.7726   -0.3491 H   0  0  0  0  0  0  0  0  0  0  0  0
    4.1448   -7.5183   -0.1720 H   0  0  0  0  0  0  0  0  0  0  0  0
    5.4905   -8.1281   -2.0943 H   0  0  0  0  0  0  0  0  0  0  0  0
    6.4182   -7.2474   -0.9114 H   0  0  0  0  0  0  0  0  0  0  0  0
    6.5174   -5.2148   -2.3067 H   0  0  0  0  0  0  0  0  0  0  0  0
    7.1811   -6.6953   -2.9905 H   0  0  0  0  0  0  0  0  0  0  0  0
    6.1429   -5.6045   -4.7821 H   0  0  0  0  0  0  0  0  0  0  0  0
    5.2812   -7.0991   -4.4734 H   0  0  0  0  0  0  0  0  0  0  0  0
    1.8310   -4.5127   -3.3876 H   0  0  0  0  0  0  0  0  0  0  0  0
    2.2990   -3.6535   -4.8975 H   0  0  0  0  0  0  0  0  0  0  0  0
    3.0161   -1.6591   -3.6126 H   0  0  0  0  0  0  0  0  0  0  0  0
    1.2832   -1.9880   -3.3865 H   0  0  0  0  0  0  0  0  0  0  0  0
    1.9995   -2.4524    0.9197 H   0  0  0  0  0  0  0  0  0  0  0  0
    3.6370   -1.7630    0.6134 H   0  0  0  0  0  0  0  0  0  0  0  0
    0.9511   -0.4062    1.2620 H   0  0  0  0  0  0  0  0  0  0  0  0
    2.3513    0.5946    0.8793 H   0  0  0  0  0  0  0  0  0  0  0  0
    2.0540    0.4785    3.2562 H   0  0  0  0  0  0  0  0  0  0  0  0
    1.9142   -1.2904    3.2778 H   0  0  0  0  0  0  0  0  0  0  0  0
    4.1869   -0.5588    4.0789 H   0  0  0  0  0  0  0  0  0  0  0  0
    4.3467   -1.3577    2.4948 H   0  0  0  0  0  0  0  0  0  0  0  0
    6.4953    2.9697    2.6652 H   0  0  0  0  0  0  0  0  0  0  0  0
    7.4403    1.9793    1.4244 H   0  0  0  0  0  0  0  0  0  0  0  0
    5.7427    3.7033    0.4909 H   0  0  0  0  0  0  0  0  0  0  0  0
    4.4609    2.7848    1.2716 H   0  0  0  0  0  0  0  0  0  0  0  0
    4.4115   -0.2104   -1.9915 H   0  0  0  0  0  0  0  0  0  0  0  0
    3.3329    1.0077   -2.8766 H   0  0  0  0  0  0  0  0  0  0  0  0
    5.0510    2.1320   -3.8022 H   0  0  0  0  0  0  0  0  0  0  0  0
    6.3394    1.2099   -2.8062 H   0  0  0  0  0  0  0  0  0  0  0  0
    5.5824   -0.8947   -4.0073 H   0  0  0  0  0  0  0  0  0  0  0  0
    4.4395    0.0935   -4.9782 H   0  0  0  0  0  0  0  0  0  0  0  0
    6.5670   -0.4941   -6.1551 H   0  0  0  0  0  0  0  0  0  0  0  0
    6.2171    1.2775   -6.1179 H   0  0  0  0  0  0  0  0  0  0  0  0
    9.4405    1.8207   -2.7875 H   0  0  0  0  0  0  0  0  0  0  0  0
   10.2597    1.9342   -4.3546 H   0  0  0  0  0  0  0  0  0  0  0  0
   10.3597    4.0799   -3.0929 H   0  0  0  0  0  0  0  0  0  0  0  0
    9.3902    4.2549   -4.5711 H   0  0  0  0  0  0  0  0  0  0  0  0
    5.5743    4.3632   -1.6433 H   0  0  0  0  0  0  0  0  0  0  0  0
    5.0851    5.1941   -3.1221 H   0  0  0  0  0  0  0  0  0  0  0  0
    7.1409    6.3557   -1.1682 H   0  0  0  0  0  0  0  0  0  0  0  0
    6.4112    7.1975   -2.5720 H   0  0  0  0  0  0  0  0  0  0  0  0
    5.1275    6.2451    0.0559 H   0  0  0  0  0  0  0  0  0  0  0  0
    4.1501    6.7462   -1.3551 H   0  0  0  0  0  0  0  0  0  0  0  0
    5.3692    8.8317   -1.4792 H   0  0  0  0  0  0  0  0  0  0  0  0
    6.5441    8.3661   -0.2581 H   0  0  0  0  0  0  0  0  0  0  0  0
    4.5039   10.8558    2.0972 H   0  0  0  0  0  0  0  0  0  0  0  0
    2.7846   11.0616    1.8601 H   0  0  0  0  0  0  0  0  0  0  0  0
    3.9815    8.8947    3.6874 H   0  0  0  0  0  0  0  0  0  0  0  0
    3.4232   10.5378    4.1593 H   0  0  0  0  0  0  0  0  0  0  0  0
   -0.3501    9.4972    5.6194 H   0  0  0  0  0  0  0  0  0  0  0  0
    0.5938    8.5286    6.7391 H   0  0  0  0  0  0  0  0  0  0  0  0
    0.2496    6.4683    5.4404 H   0  0  0  0  0  0  0  0  0  0  0  0
   -0.6953    7.3502    4.2157 H   0  0  0  0  0  0  0  0  0  0  0  0
   -1.1988    7.2803    7.2771 H   0  0  0  0  0  0  0  0  0  0  0  0
   -2.0436    8.3441    6.1626 H   0  0  0  0  0  0  0  0  0  0  0  0
   -2.9839    6.2936    4.9590 H   0  0  0  0  0  0  0  0  0  0  0  0
   -3.3460    6.3503    6.7547 H   0  0  0  0  0  0  0  0  0  0  0  0
   -2.7139    2.1245    5.1139 H   0  0  0  0  0  0  0  0  0  0  0  0
   -2.7085    2.0671    6.9647 H   0  0  0  0  0  0  0  0  0  0  0  0
   -5.0792    2.6618    5.1938 H   0  0  0  0  0  0  0  0  0  0  0  0
   -5.1348    2.4996    6.9740 H   0  0  0  0  0  0  0  0  0  0  0  0
   -6.9059   -1.3673    5.2359 H   0  0  0  0  0  0  0  0  0  0  0  0
   -5.4346   -1.7738    4.3381 H   0  0  0  0  0  0  0  0  0  0  0  0
   -7.7334    0.1109    3.4692 H   0  0  0  0  0  0  0  0  0  0  0  0
   -6.2243    0.0283    2.5700 H   0  0  0  0  0  0  0  0  0  0  0  0
   -6.6982   -2.4470    2.0466 H   0  0  0  0  0  0  0  0  0  0  0  0
   -8.2072   -2.2940    2.9973 H   0  0  0  0  0  0  0  0  0  0  0  0
   -8.8178   -0.2491    1.7679 H   0  0  0  0  0  0  0  0  0  0  0  0
   -7.2539   -0.3155    0.8727 H   0  0  0  0  0  0  0  0  0  0  0  0
  -10.7812   -2.7200   -1.8054 H   0  0  0  0  0  0  0  0  0  0  0  0
   -9.3986   -3.8760   -1.7666 H   0  0  0  0  0  0  0  0  0  0  0  0
   -9.4434   -0.8173   -2.1716 H   0  0  0  0  0  0  0  0  0  0  0  0
   -7.8933   -1.7084   -2.0290 H   0  0  0  0  0  0  0  0  0  0  0  0
   -8.5908   -3.2175   -6.3429 H   0  0  0  0  0  0  0  0  0  0  0  0
   -7.8414   -1.6052   -6.3861 H   0  0  0  0  0  0  0  0  0  0  0  0
   -5.6395   -2.4846   -5.7197 H   0  0  0  0  0  0  0  0  0  0  0  0
   -6.1891   -3.2026   -7.2665 H   0  0  0  0  0  0  0  0  0  0  0  0
   -6.7554   -5.2762   -6.1822 H   0  0  0  0  0  0  0  0  0  0  0  0
   -5.0664   -4.7758   -5.8104 H   0  0  0  0  0  0  0  0  0  0  0  0
   -5.8132   -3.9879   -3.5100 H   0  0  0  0  0  0  0  0  0  0  0  0
   -7.4587   -4.5633   -3.9345 H   0  0  0  0  0  0  0  0  0  0  0  0
   -4.7063   -8.0376   -2.5089 H   0  0  0  0  0  0  0  0  0  0  0  0
   -6.4136   -8.6189   -2.8139 H   0  0  0  0  0  0  0  0  0  0  0  0
   -6.9690   -8.1864   -0.4774 H   0  0  0  0  0  0  0  0  0  0  0  0
   -5.7503   -9.4302   -0.6720 H   0  0  0  0  0  0  0  0  0  0  0  0
   -3.5368   -9.0613    2.7269 H   0  0  0  0  0  0  0  0  0  0  0  0
   -4.2666   -7.4737    3.0924 H   0  0  0  0  0  0  0  0  0  0  0  0
   -1.9332   -7.4134    3.2286 H   0  0  0  0  0  0  0  0  0  0  0  0
   -1.6354   -8.0434    1.6025 H   0  0  0  0  0  0  0  0  0  0  0  0
   -2.4497   -5.8160    0.6816 H   0  0  0  0  0  0  0  0  0  0  0  0
   -1.1940   -5.6842    1.9073 H   0  0  0  0  0  0  0  0  0  0  0  0
   -2.7216   -5.3348    3.7184 H   0  0  0  0  0  0  0  0  0  0  0  0
   -4.1539   -5.4673    2.6739 H   0  0  0  0  0  0  0  0  0  0  0  0
   -1.4607   -1.3098    0.9310 H   0  0  0  0  0  0  0  0  0  0  0  0
   -1.5434   -0.9917    2.6791 H   0  0  0  0  0  0  0  0  0  0  0  0
   -3.8910   -1.7561    0.8254 H   0  0  0  0  0  0  0  0  0  0  0  0
   -3.9860   -1.3985    2.6003 H   0  0  0  0  0  0  0  0  0  0  0  0
   -4.3557    1.7369    0.0343 H   0  0  0  0  0  0  0  0  0  0  0  0
  1  2  1  0
  2  3  1  0
  3  4  1  0
  4  5  1  0
  5  6  1  0
  6  7  1  0
  7  8  2  0
  7  9  1  0
  9 10  1  0
 10 11  1  0
 11 12  2  0
 11 13  1  0
 13 14  1  0
 14 15  1  0
 15 16  1  0
 16 17  1  0
 17 18  1  0
 18 19  1  0
 19 20  2  0
 19 21  1  0
 21 22  1  0
 22 23  1  0
 23 24  2  0
 23 25  1  0
 25 26  1  0
 26 27  1  0
 27 28  1  0
 28 29  1  0
 29 30  1  0
 30 31  1  0
 31 32  2  0
 31 33  1  0
 33 34  1  0
 34 35  1  0
 35 36  2  0
 35 37  1  0
 37 38  1  0
 38 39  1  0
 39 40  1  0
 40 41  1  0
 41 42  1  0
 42 43  1  0
 43 44  2  0
 43 45  1  0
 45 46  1  0
 46 47  1  0
 47 48  2  0
 47 49  1  0
 49 50  1  0
 50 51  1  0
 51 52  1  0
 52 53  1  0
 53 54  1  0
 54 55  1  0
 55 56  2  0
 55 57  1  0
 57 58  1  0
 58 59  1  0
 59 60  2  0
 59 61  1  0
 61 62  1  0
 62 63  1  0
 63 64  1  0
 64 65  1  0
 65 66  1  0
 66 67  1  0
 67 68  2  0
 67 69  1  0
 69 70  1  0
 70 71  1  0
 71 72  2  0
 71 73  1  0
 73 74  1  0
 74 75  1  0
 75 76  1  0
 76 77  1  0
 77 78  1  0
 78 79  1  0
 79 80  2  0
 79 81  1  0
 81 82  1  0
 82 83  1  0
 83 84  2  0
 83 85  1  0
 85 86  1  0
 86 87  1  0
 87 88  1  0
 88 89  1  0
 89 90  1  0
 90 91  1  0
 91 92  2  0
 91 93  1  0
 93 94  1  0
 94 95  1  0
 95 96  2  0
 95 97  1  0
 97 98  1  0
 98 99  1  0
 99100  1  0
100101  1  0
101102  1  0
102103  1  0
103104  2  0
103105  1  0
105106  1  0
106107  1  0
107108  2  0
107109  1  0
109110  1  0
110111  1  0
111112  1  0
112113  1  0
113114  1  0
114115  1  0
115116  2  0
115117  1  0
117118  1  0
118119  1  0
119120  2  0
119121  1  0
  1122  1  0
  2123  1  0
  2124  1  0
  3125  1  0
  3126  1  0
  4127  1  0
  4128  1  0
  5129  1  0
  5130  1  0
  9131  1  0
  9132  1  0
 10133  1  0
 10134  1  0
 14135  1  0
 14136  1  0
 15137  1  0
 15138  1  0
 16139  1  0
 16140  1  0
 17141  1  0
 17142  1  0
 21143  1  0
 21144  1  0
 22145  1  0
 22146  1  0
 26147  1  0
 26148  1  0
 27149  1  0
 27150  1  0
 28151  1  0
 28152  1  0
 29153  1  0
 29154  1  0
 33155  1  0
 33156  1  0
 34157  1  0
 34158  1  0
 38159  1  0
 38160  1  0
 39161  1  0
 39162  1  0
 40163  1  0
 40164  1  0
 41165  1  0
 41166  1  0
 45167  1  0
 45168  1  0
 46169  1  0
 46170  1  0
 50171  1  0
 50172  1  0
 51173  1  0
 51174  1  0
 52175  1  0
 52176  1  0
 53177  1  0
 53178  1  0
 57179  1  0
 57180  1  0
 58181  1  0
 58182  1  0
 62183  1  0
 62184  1  0
 63185  1  0
 63186  1  0
 64187  1  0
 64188  1  0
 65189  1  0
 65190  1  0
 69191  1  0
 69192  1  0
 70193  1  0
 70194  1  0
 74195  1  0
 74196  1  0
 75197  1  0
 75198  1  0
 76199  1  0
 76200  1  0
 77201  1  0
 77202  1  0
 81203  1  0
 81204  1  0
 82205  1  0
 82206  1  0
 86207  1  0
 86208  1  0
 87209  1  0
 87210  1  0
 88211  1  0
 88212  1  0
 89213  1  0
 89214  1  0
 93215  1  0
 93216  1  0
 94217  1  0
 94218  1  0
 98219  1  0
 98220  1  0
 99221  1  0
 99222  1  0
100223  1  0
100224  1  0
101225  1  0
101226  1  0
105227  1  0
105228  1  0
106229  1  0
106230  1  0
110231  1  0
110232  1  0
111233  1  0
111234  1  0
112235  1  0
112236  1  0
113237  1  0
113238  1  0
117239  1  0
117240  1  0
118241  1  0
118242  1  0
121243  1  0
M  END
$$$$
