
     RDKit          3D

 62 61  0  0  0  0  0  0  0  0999 V2000
    4.0106    0.1990    5.8010 C   0  0  0  0  0  0  0  0  0  0  0  0
    3.1933    0.6111    4.5587 C   0  0  0  0  0  0  0  0  0  0  0  0
    3.8530    0.0862    3.3246 C   0  0  0  0  0  0  0  0  0  0  0  0
    3.2817    0.3660    2.0184 C   0  0  0  0  0  0  0  0  0  0  0  0
    1.9704   -0.0717    1.5549 C   0  0  0  0  0  0  0  0  0  0  0  0
    0.7173    0.3080    2.1946 C   0  0  0  0  0  0  0  0  0  0  0  0
   -0.5492   -0.2055    1.4643 C   0  0  0  0  0  0  0  0  0  0  0  0
   -0.5429   -1.6780    1.3469 C   0  0  0  0  0  0  0  0  0  0  0  0
   -1.7033   -2.3495    0.7468 C   0  0  0  0  0  0  0  0  0  0  0  0
   -1.9400   -1.8493   -0.6855 C   0  0  0  0  0  0  0  0  0  0  0  0
   -3.0685   -2.5951   -1.2845 C   0  0  0  0  0  0  0  0  0  0  0  0
   -3.4693   -2.2191   -2.6445 C   0  0  0  0  0  0  0  0  0  0  0  0
   -2.5263   -2.2158   -3.7591 C   0  0  0  0  0  0  0  0  0  0  0  0
   -1.5020   -1.1546   -3.9102 C   0  0  0  0  0  0  0  0  0  0  0  0
   -2.1534    0.1961   -4.1662 C   0  0  0  0  0  0  0  0  0  0  0  0
   -1.1381    1.2368   -4.4052 C   0  0  0  0  0  0  0  0  0  0  0  0
   -0.2030    1.6172   -3.3247 C   0  0  0  0  0  0  0  0  0  0  0  0
   -0.9253    2.2019   -2.1163 C   0  0  0  0  0  0  0  0  0  0  0  0
    0.1671    2.6030   -1.1389 C   0  0  0  0  0  0  0  0  0  0  0  0
   -0.4748    3.1975    0.0857 C   0  0  0  0  0  0  0  0  0  0  0  0
    5.0915    0.2787    5.5882 H   0  0  0  0  0  0  0  0  0  0  0  0
    3.6672    0.8558    6.6228 H   0  0  0  0  0  0  0  0  0  0  0  0
    3.6881   -0.8355    6.0621 H   0  0  0  0  0  0  0  0  0  0  0  0
    2.1568    0.3405    4.6810 H   0  0  0  0  0  0  0  0  0  0  0  0
    3.2265    1.7397    4.5849 H   0  0  0  0  0  0  0  0  0  0  0  0
    4.1276   -0.9939    3.4952 H   0  0  0  0  0  0  0  0  0  0  0  0
    4.8921    0.5692    3.3342 H   0  0  0  0  0  0  0  0  0  0  0  0
    4.0282    0.0057    1.2200 H   0  0  0  0  0  0  0  0  0  0  0  0
    3.3837    1.5038    1.8593 H   0  0  0  0  0  0  0  0  0  0  0  0
    1.9626   -1.2284    1.5004 H   0  0  0  0  0  0  0  0  0  0  0  0
    1.9124    0.1700    0.4496 H   0  0  0  0  0  0  0  0  0  0  0  0
    0.5621    1.4015    2.2916 H   0  0  0  0  0  0  0  0  0  0  0  0
    0.5604   -0.0862    3.2250 H   0  0  0  0  0  0  0  0  0  0  0  0
   -0.6075    0.3456    0.5312 H   0  0  0  0  0  0  0  0  0  0  0  0
   -1.4031    0.0965    2.1412 H   0  0  0  0  0  0  0  0  0  0  0  0
    0.3423   -1.9438    0.6733 H   0  0  0  0  0  0  0  0  0  0  0  0
   -0.2438   -2.0871    2.3440 H   0  0  0  0  0  0  0  0  0  0  0  0
   -1.5136   -3.4419    0.7356 H   0  0  0  0  0  0  0  0  0  0  0  0
   -2.6258   -2.1143    1.3138 H   0  0  0  0  0  0  0  0  0  0  0  0
   -1.0131   -2.1533   -1.2120 H   0  0  0  0  0  0  0  0  0  0  0  0
   -2.1545   -0.7932   -0.6288 H   0  0  0  0  0  0  0  0  0  0  0  0
   -3.9667   -2.4339   -0.5993 H   0  0  0  0  0  0  0  0  0  0  0  0
   -2.9177   -3.7213   -1.1807 H   0  0  0  0  0  0  0  0  0  0  0  0
   -4.3019   -2.9585   -2.9440 H   0  0  0  0  0  0  0  0  0  0  0  0
   -4.0023   -1.2090   -2.5345 H   0  0  0  0  0  0  0  0  0  0  0  0
   -1.9323   -3.1936   -3.6931 H   0  0  0  0  0  0  0  0  0  0  0  0
   -3.0179   -2.3296   -4.7658 H   0  0  0  0  0  0  0  0  0  0  0  0
   -0.9597   -1.3762   -4.8825 H   0  0  0  0  0  0  0  0  0  0  0  0
   -0.7374   -1.0300   -3.1723 H   0  0  0  0  0  0  0  0  0  0  0  0
   -2.8904    0.4368   -3.3718 H   0  0  0  0  0  0  0  0  0  0  0  0
   -2.7682    0.1059   -5.0992 H   0  0  0  0  0  0  0  0  0  0  0  0
   -1.5708    2.1650   -4.8776 H   0  0  0  0  0  0  0  0  0  0  0  0
   -0.4801    0.8402   -5.2555 H   0  0  0  0  0  0  0  0  0  0  0  0
    0.4753    0.8237   -2.9977 H   0  0  0  0  0  0  0  0  0  0  0  0
    0.4326    2.4435   -3.7047 H   0  0  0  0  0  0  0  0  0  0  0  0
   -1.4184    3.1217   -2.4530 H   0  0  0  0  0  0  0  0  0  0  0  0
   -1.5634    1.4715   -1.6084 H   0  0  0  0  0  0  0  0  0  0  0  0
    0.7503    1.7231   -0.8408 H   0  0  0  0  0  0  0  0  0  0  0  0
    0.8438    3.3661   -1.5965 H   0  0  0  0  0  0  0  0  0  0  0  0
    0.2358    3.3300    0.9181 H   0  0  0  0  0  0  0  0  0  0  0  0
   -1.3382    2.6169    0.4415 H   0  0  0  0  0  0  0  0  0  0  0  0
   -0.9091    4.1971   -0.2181 H   0  0  0  0  0  0  0  0  0  0  0  0
  1  2  1  0
  2  3  1  0
  3  4  1  0
  4  5  1  0
  5  6  1  0
  6  7  1  0
  7  8  1  0
  8  9  1  0
  9 10  1  0
 10 11  1  0
 11 12  1  0
 12 13  1  0
 13 14  1  0
 14 15  1  0
 15 16  1  0
 16 17  1  0
 17 18  1  0
 18 19  1  0
 19 20  1  0
  1 21  1  0
  1 22  1  0
  1 23  1  0
  2 24  1  0
  2 25  1  0
  3 26  1  0
  3 27  1  0
  4 28  1  0
  4 29  1  0
  5 30  1  0
  5 31  1  0
  6 32  1  0
  6 33  1  0
  7 34  1  0
  7 35  1  0
  8 36  1  0
  8 37  1  0
  9 38  1  0
  9 39  1  0
 10 40  1  0
 10 41  1  0
 11 42  1  0
 11 43  1  0
 12 44  1  0
 12 45  1  0
 13 46  1  0
 13 47  1  0
 14 48  1  0
 14 49  1  0
 15 50  1  0
 15 51  1  0
 16 52  1  0
 16 53  1  0
 17 54  1  0
 17 55  1  0
 18 56  1  0
 18 57  1  0
 19 58  1  0
 19 59  1  0
 20 60  1  0
 20 61  1  0
 20 62  1  0
M  END
$$$$
