
     RDKit          3D

223232  0  0  0  0  0  0  0  0999 V2000
   -2.7595    4.4131    6.9178 O   0  0  0  0  0  0  0  0  0  0  0  0
   -3.1440    5.4003    5.9786 C   0  0  0  0  0  0  0  0  0  0  0  0
   -3.4318    4.8550    4.6666 C   0  0  0  0  0  0  0  0  0  0  0  0
   -3.7991    5.9363    3.7264 O   0  0  0  0  0  0  0  0  0  0  0  0
   -4.0118    5.4431    2.4389 C   0  0  0  0  0  0  0  0  0  0  0  0
   -3.8821    4.1439    2.4245 O   0  0  0  0  0  0  0  0  0  0  0  0
   -4.3150    6.1148    1.2164 C   0  0  0  0  0  0  0  0  0  0  0  0
   -4.3063    5.2313    0.0965 C   0  0  0  0  0  0  0  0  0  0  0  0
   -4.4576    5.8205   -1.1195 C   0  0  0  0  0  0  0  0  0  0  0  0
   -4.6230    7.1550   -1.3738 C   0  0  0  0  0  0  0  0  0  0  0  0
   -4.6429    8.0330   -0.2763 C   0  0  0  0  0  0  0  0  0  0  0  0
   -4.4836    7.4111    0.9585 C   0  0  0  0  0  0  0  0  0  0  0  0
   -4.6104    7.6987   -2.7724 C   0  0  0  0  0  0  0  0  0  0  0  0
   -5.0566    8.8116   -3.0636 O   0  0  0  0  0  0  0  0  0  0  0  0
   -4.0982    6.9704   -3.7404 O   0  0  0  0  0  0  0  0  0  0  0  0
   -3.6377    6.3374   -4.6678 C   0  0  0  0  0  0  0  0  0  0  0  0
   -2.6326    6.7521   -5.7682 C   0  0  0  0  0  0  0  0  0  0  0  0
   -2.5353    5.5670   -6.4270 O   0  0  0  0  0  0  0  0  0  0  0  0
   -2.3140    4.6041   -7.2356 C   0  0  0  0  0  0  0  0  0  0  0  0
   -1.7246    5.0368   -8.3314 O   0  0  0  0  0  0  0  0  0  0  0  0
   -2.6427    3.2105   -7.0488 C   0  0  0  0  0  0  0  0  0  0  0  0
   -3.0366    2.9835   -5.5497 C   0  0  0  0  0  0  0  0  0  0  0  0
   -3.4940    1.7617   -5.2619 C   0  0  0  0  0  0  0  0  0  0  0  0
   -3.6573    0.6638   -6.1548 C   0  0  0  0  0  0  0  0  0  0  0  0
   -3.3085    0.8755   -7.4860 C   0  0  0  0  0  0  0  0  0  0  0  0
   -2.8518    2.1578   -7.6698 C   0  0  0  0  0  0  0  0  0  0  0  0
   -4.1942   -0.5463   -5.5688 C   0  0  0  0  0  0  0  0  0  0  0  0
   -4.5273   -1.4757   -6.4029 O   0  0  0  0  0  0  0  0  0  0  0  0
   -4.3796   -0.8156   -4.3301 O   0  0  0  0  0  0  0  0  0  0  0  0
   -4.5940   -1.1510   -3.0886 C   0  0  0  0  0  0  0  0  0  0  0  0
   -6.0127   -1.4638   -2.6355 C   0  0  0  0  0  0  0  0  0  0  0  0
   -5.9446   -1.7402   -1.2541 O   0  0  0  0  0  0  0  0  0  0  0  0
   -7.0568   -2.1320   -0.5055 C   0  0  0  0  0  0  0  0  0  0  0  0
   -8.1455   -2.2607   -1.1251 O   0  0  0  0  0  0  0  0  0  0  0  0
   -7.0715   -2.4026    0.9190 C   0  0  0  0  0  0  0  0  0  0  0  0
   -8.1812   -2.7880    1.5638 C   0  0  0  0  0  0  0  0  0  0  0  0
   -8.3487   -3.0061    2.9229 C   0  0  0  0  0  0  0  0  0  0  0  0
   -7.1749   -2.7704    3.6912 C   0  0  0  0  0  0  0  0  0  0  0  0
   -6.0754   -2.3898    3.0485 C   0  0  0  0  0  0  0  0  0  0  0  0
   -5.9170   -2.1849    1.6932 C   0  0  0  0  0  0  0  0  0  0  0  0
   -7.2089   -2.8798    5.1450 C   0  0  0  0  0  0  0  0  0  0  0  0
   -8.0408   -3.4113    5.8718 O   0  0  0  0  0  0  0  0  0  0  0  0
   -6.1099   -2.2502    5.8551 O   0  0  0  0  0  0  0  0  0  0  0  0
   -6.0230   -2.2145    7.2381 C   0  0  0  0  0  0  0  0  0  0  0  0
   -5.6685   -3.4078    8.0347 C   0  0  0  0  0  0  0  0  0  0  0  0
   -4.2959   -3.8639    7.8092 O   0  0  0  0  0  0  0  0  0  0  0  0
   -3.2791   -3.0129    8.2597 C   0  0  0  0  0  0  0  0  0  0  0  0
   -3.6309   -1.9444    8.8678 O   0  0  0  0  0  0  0  0  0  0  0  0
   -1.8604   -3.2082    8.0833 C   0  0  0  0  0  0  0  0  0  0  0  0
   -1.0879   -2.0363    8.1232 C   0  0  0  0  0  0  0  0  0  0  0  0
    0.2429   -2.0261    7.7699 C   0  0  0  0  0  0  0  0  0  0  0  0
    0.9016   -3.1747    7.3532 C   0  0  0  0  0  0  0  0  0  0  0  0
    0.1413   -4.3508    7.3311 C   0  0  0  0  0  0  0  0  0  0  0  0
   -1.2074   -4.3361    7.6948 C   0  0  0  0  0  0  0  0  0  0  0  0
    2.1797   -3.1994    6.6876 C   0  0  0  0  0  0  0  0  0  0  0  0
    2.7794   -4.3349    6.6146 O   0  0  0  0  0  0  0  0  0  0  0  0
    2.8127   -2.1480    6.0999 O   0  0  0  0  0  0  0  0  0  0  0  0
    4.0243   -2.1685    5.4080 C   0  0  0  0  0  0  0  0  0  0  0  0
    4.0764   -3.1541    4.2785 C   0  0  0  0  0  0  0  0  0  0  0  0
    3.0715   -2.9405    3.2720 O   0  0  0  0  0  0  0  0  0  0  0  0
    3.0977   -3.9195    2.2183 C   0  0  0  0  0  0  0  0  0  0  0  0
    3.9948   -4.7994    2.2934 O   0  0  0  0  0  0  0  0  0  0  0  0
    2.1653   -3.9268    1.1422 C   0  0  0  0  0  0  0  0  0  0  0  0
    1.2212   -2.8771    1.0888 C   0  0  0  0  0  0  0  0  0  0  0  0
    0.2672   -3.0536    0.1014 C   0  0  0  0  0  0  0  0  0  0  0  0
    0.1801   -4.0921   -0.7569 C   0  0  0  0  0  0  0  0  0  0  0  0
    1.1067   -5.1144   -0.7046 C   0  0  0  0  0  0  0  0  0  0  0  0
    2.0753   -4.9572    0.2816 C   0  0  0  0  0  0  0  0  0  0  0  0
   -0.9823   -4.1734   -1.6390 C   0  0  0  0  0  0  0  0  0  0  0  0
   -1.7392   -3.1645   -1.7021 O   0  0  0  0  0  0  0  0  0  0  0  0
   -1.3195   -5.2600   -2.3747 O   0  0  0  0  0  0  0  0  0  0  0  0
   -2.4645   -5.3837   -3.2148 C   0  0  0  0  0  0  0  0  0  0  0  0
   -2.5477   -7.0002   -3.2754 C   0  0  0  0  0  0  0  0  0  0  0  0
   -2.5954   -7.3565   -1.9972 O   0  0  0  0  0  0  0  0  0  0  0  0
   -2.6368   -8.0231   -0.8719 C   0  0  0  0  0  0  0  0  0  0  0  0
   -2.6549   -9.2138   -0.8141 O   0  0  0  0  0  0  0  0  0  0  0  0
   -2.6298   -7.2507    0.4043 C   0  0  0  0  0  0  0  0  0  0  0  0
   -3.0669   -5.8652    0.3471 C   0  0  0  0  0  0  0  0  0  0  0  0
   -2.7866   -5.1675    1.4689 C   0  0  0  0  0  0  0  0  0  0  0  0
   -2.1935   -5.5344    2.5992 C   0  0  0  0  0  0  0  0  0  0  0  0
   -1.7515   -6.9310    2.6842 C   0  0  0  0  0  0  0  0  0  0  0  0
   -2.0493   -7.6086    1.5255 C   0  0  0  0  0  0  0  0  0  0  0  0
   -1.9082   -4.6535    3.7150 C   0  0  0  0  0  0  0  0  0  0  0  0
   -1.4268   -5.1786    4.7496 O   0  0  0  0  0  0  0  0  0  0  0  0
   -2.1652   -3.3083    3.6180 O   0  0  0  0  0  0  0  0  0  0  0  0
   -1.9580   -2.3840    4.6990 C   0  0  0  0  0  0  0  0  0  0  0  0
   -2.3726   -0.9784    4.3549 C   0  0  0  0  0  0  0  0  0  0  0  0
   -1.7427   -0.3158    3.3500 O   0  0  0  0  0  0  0  0  0  0  0  0
   -0.5374    0.4177    3.3677 C   0  0  0  0  0  0  0  0  0  0  0  0
    0.0042    0.5282    4.4823 O   0  0  0  0  0  0  0  0  0  0  0  0
   -0.0274    0.9696    2.1290 C   0  0  0  0  0  0  0  0  0  0  0  0
   -0.7779    0.5931    0.9627 C   0  0  0  0  0  0  0  0  0  0  0  0
   -0.1597    0.9972   -0.1796 C   0  0  0  0  0  0  0  0  0  0  0  0
    0.9653    1.6418   -0.4134 C   0  0  0  0  0  0  0  0  0  0  0  0
    1.7163    2.0448    0.7359 C   0  0  0  0  0  0  0  0  0  0  0  0
    1.1138    1.6455    1.9263 C   0  0  0  0  0  0  0  0  0  0  0  0
    1.5328    1.7362   -1.7841 C   0  0  0  0  0  0  0  0  0  0  0  0
    2.5169    2.3798   -2.1245 O   0  0  0  0  0  0  0  0  0  0  0  0
    0.8505    0.9861   -2.6965 O   0  0  0  0  0  0  0  0  0  0  0  0
    0.9547    0.6121   -3.9827 C   0  0  0  0  0  0  0  0  0  0  0  0
    2.1927    0.1276   -4.6354 C   0  0  0  0  0  0  0  0  0  0  0  0
    2.8450   -0.8744   -4.0627 O   0  0  0  0  0  0  0  0  0  0  0  0
    3.5486   -1.9687   -3.9815 C   0  0  0  0  0  0  0  0  0  0  0  0
    3.8002   -2.5636   -5.1181 O   0  0  0  0  0  0  0  0  0  0  0  0
    4.0782   -2.5516   -2.7234 C   0  0  0  0  0  0  0  0  0  0  0  0
    4.5447   -3.6191   -2.3953 C   0  0  0  0  0  0  0  0  0  0  0  0
    5.2797   -4.1931   -1.3042 C   0  0  0  0  0  0  0  0  0  0  0  0
    5.4644   -3.0232   -0.3793 C   0  0  0  0  0  0  0  0  0  0  0  0
    4.9786   -1.8948   -0.6982 C   0  0  0  0  0  0  0  0  0  0  0  0
    4.2600   -1.3602   -1.7666 C   0  0  0  0  0  0  0  0  0  0  0  0
    6.3706   -3.2178    0.7434 C   0  0  0  0  0  0  0  0  0  0  0  0
    6.8680   -4.3651    0.8664 O   0  0  0  0  0  0  0  0  0  0  0  0
    6.6451   -2.1683    1.5556 O   0  0  0  0  0  0  0  0  0  0  0  0
    7.6112   -2.1426    2.6108 C   0  0  0  0  0  0  0  0  0  0  0  0
    8.9003   -2.4050    1.6915 C   0  0  0  0  0  0  0  0  0  0  0  0
    8.7041   -1.3260    0.8252 O   0  0  0  0  0  0  0  0  0  0  0  0
    9.3071   -1.0742   -0.4054 C   0  0  0  0  0  0  0  0  0  0  0  0
   10.0698   -1.6055   -1.0453 O   0  0  0  0  0  0  0  0  0  0  0  0
    8.7042    0.2676   -0.9091 C   0  0  0  0  0  0  0  0  0  0  0  0
    7.9769    0.9895   -0.2987 C   0  0  0  0  0  0  0  0  0  0  0  0
    7.4196    2.1811   -0.7111 C   0  0  0  0  0  0  0  0  0  0  0  0
    7.7038    2.6193   -1.9288 C   0  0  0  0  0  0  0  0  0  0  0  0
    8.6189    1.7992   -2.8076 C   0  0  0  0  0  0  0  0  0  0  0  0
    9.1350    0.5947   -2.2879 C   0  0  0  0  0  0  0  0  0  0  0  0
    7.2283    3.8638   -2.4026 C   0  0  0  0  0  0  0  0  0  0  0  0
    6.6414    4.5355   -1.3549 O   0  0  0  0  0  0  0  0  0  0  0  0
    7.1452    4.6324   -3.5151 O   0  0  0  0  0  0  0  0  0  0  0  0
    6.3937    5.9063   -3.2786 C   0  0  0  0  0  0  0  0  0  0  0  0
    4.9436    5.5327   -3.1438 C   0  0  0  0  0  0  0  0  0  0  0  0
    4.0342    6.4457   -2.8213 O   0  0  0  0  0  0  0  0  0  0  0  0
    3.4618    7.6201   -2.9967 C   0  0  0  0  0  0  0  0  0  0  0  0
    3.8965    8.3763   -3.9002 O   0  0  0  0  0  0  0  0  0  0  0  0
    2.3411    8.0103   -2.1144 C   0  0  0  0  0  0  0  0  0  0  0  0
    1.7015    6.9656   -1.3169 C   0  0  0  0  0  0  0  0  0  0  0  0
    0.6963    7.4470   -0.5513 C   0  0  0  0  0  0  0  0  0  0  0  0
    0.1899    8.6751   -0.4004 C   0  0  0  0  0  0  0  0  0  0  0  0
    0.8121    9.7163   -1.1851 C   0  0  0  0  0  0  0  0  0  0  0  0
    1.8339    9.2084   -1.9560 C   0  0  0  0  0  0  0  0  0  0  0  0
   -0.9017    9.0193    0.4976 C   0  0  0  0  0  0  0  0  0  0  0  0
   -1.4474   10.1185    0.5904 O   0  0  0  0  0  0  0  0  0  0  0  0
   -1.3323    7.9381    1.3234 O   0  0  0  0  0  0  0  0  0  0  0  0
   -1.8049    4.5588    7.1692 H   0  0  0  0  0  0  0  0  0  0  0  0
   -3.9661    5.9655    6.4808 H   0  0  0  0  0  0  0  0  0  0  0  0
   -2.3013    6.1515    5.9147 H   0  0  0  0  0  0  0  0  0  0  0  0
   -2.5326    4.3441    4.2191 H   0  0  0  0  0  0  0  0  0  0  0  0
   -4.2260    4.0996    4.6704 H   0  0  0  0  0  0  0  0  0  0  0  0
   -4.2115    4.1853    0.1622 H   0  0  0  0  0  0  0  0  0  0  0  0
   -4.4360    5.1628   -2.0127 H   0  0  0  0  0  0  0  0  0  0  0  0
   -4.7634    9.0749   -0.4575 H   0  0  0  0  0  0  0  0  0  0  0  0
   -4.5314    8.0802    1.8356 H   0  0  0  0  0  0  0  0  0  0  0  0
   -4.3273    5.5760   -5.1978 H   0  0  0  0  0  0  0  0  0  0  0  0
   -2.9094    5.5191   -4.1421 H   0  0  0  0  0  0  0  0  0  0  0  0
   -1.6762    7.1094   -5.2630 H   0  0  0  0  0  0  0  0  0  0  0  0
   -3.1025    7.5429   -6.3598 H   0  0  0  0  0  0  0  0  0  0  0  0
   -2.8855    3.7317   -4.9060 H   0  0  0  0  0  0  0  0  0  0  0  0
   -3.7679    1.5951   -4.1784 H   0  0  0  0  0  0  0  0  0  0  0  0
   -3.4096    0.0970   -8.1544 H   0  0  0  0  0  0  0  0  0  0  0  0
   -2.5788    2.2560   -8.8324 H   0  0  0  0  0  0  0  0  0  0  0  0
   -4.2189   -0.4090   -2.3221 H   0  0  0  0  0  0  0  0  0  0  0  0
   -4.0580   -2.1521   -2.8762 H   0  0  0  0  0  0  0  0  0  0  0  0
   -6.7304   -0.6686   -2.9056 H   0  0  0  0  0  0  0  0  0  0  0  0
   -6.3788   -2.4110   -3.1559 H   0  0  0  0  0  0  0  0  0  0  0  0
   -9.1130   -2.9550    0.9814 H   0  0  0  0  0  0  0  0  0  0  0  0
   -9.2587   -3.3202    3.3873 H   0  0  0  0  0  0  0  0  0  0  0  0
   -5.1713   -2.2431    3.6394 H   0  0  0  0  0  0  0  0  0  0  0  0
   -5.0217   -1.8710    1.2191 H   0  0  0  0  0  0  0  0  0  0  0  0
   -6.9075   -1.6807    7.7258 H   0  0  0  0  0  0  0  0  0  0  0  0
   -5.1801   -1.4258    7.4904 H   0  0  0  0  0  0  0  0  0  0  0  0
   -5.7695   -3.3247    9.1153 H   0  0  0  0  0  0  0  0  0  0  0  0
   -6.3074   -4.2960    7.7368 H   0  0  0  0  0  0  0  0  0  0  0  0
   -1.5314   -1.0848    8.4375 H   0  0  0  0  0  0  0  0  0  0  0  0
    0.7873   -1.1164    7.8132 H   0  0  0  0  0  0  0  0  0  0  0  0
    0.6094   -5.2650    7.0418 H   0  0  0  0  0  0  0  0  0  0  0  0
   -1.7331   -5.2684    7.6694 H   0  0  0  0  0  0  0  0  0  0  0  0
    4.2049   -1.1564    4.9473 H   0  0  0  0  0  0  0  0  0  0  0  0
    4.9115   -2.3181    6.0638 H   0  0  0  0  0  0  0  0  0  0  0  0
    4.0676   -4.2049    4.6170 H   0  0  0  0  0  0  0  0  0  0  0  0
    5.0846   -3.0155    3.7823 H   0  0  0  0  0  0  0  0  0  0  0  0
    1.2939   -2.0667    1.7629 H   0  0  0  0  0  0  0  0  0  0  0  0
   -0.4958   -2.2461    0.0290 H   0  0  0  0  0  0  0  0  0  0  0  0
    1.0772   -5.9478   -1.3823 H   0  0  0  0  0  0  0  0  0  0  0  0
    2.8281   -5.7552    0.3590 H   0  0  0  0  0  0  0  0  0  0  0  0
   -3.3952   -5.0897   -2.7641 H   0  0  0  0  0  0  0  0  0  0  0  0
   -2.3441   -5.0908   -4.2296 H   0  0  0  0  0  0  0  0  0  0  0  0
   -1.5525   -7.2440   -3.7742 H   0  0  0  0  0  0  0  0  0  0  0  0
   -3.3492   -7.2224   -3.9473 H   0  0  0  0  0  0  0  0  0  0  0  0
   -3.5539   -5.6074   -0.5428 H   0  0  0  0  0  0  0  0  0  0  0  0
   -3.1345   -4.0900    1.4293 H   0  0  0  0  0  0  0  0  0  0  0  0
   -1.2783   -7.2743    3.5455 H   0  0  0  0  0  0  0  0  0  0  0  0
   -1.7243   -8.6887    1.5830 H   0  0  0  0  0  0  0  0  0  0  0  0
   -2.6680   -2.7642    5.4854 H   0  0  0  0  0  0  0  0  0  0  0  0
   -0.9211   -2.4324    5.0138 H   0  0  0  0  0  0  0  0  0  0  0  0
   -2.3940   -0.4435    5.3509 H   0  0  0  0  0  0  0  0  0  0  0  0
   -3.4810   -0.9936    4.0919 H   0  0  0  0  0  0  0  0  0  0  0  0
   -1.6841    0.0720    1.0058 H   0  0  0  0  0  0  0  0  0  0  0  0
   -0.7625    0.7226   -1.1034 H   0  0  0  0  0  0  0  0  0  0  0  0
    2.6230    2.5697    0.6576 H   0  0  0  0  0  0  0  0  0  0  0  0
    1.6711    1.9556    2.8225 H   0  0  0  0  0  0  0  0  0  0  0  0
    0.1612   -0.2125   -4.1286 H   0  0  0  0  0  0  0  0  0  0  0  0
    0.5853    1.4396   -4.6920 H   0  0  0  0  0  0  0  0  0  0  0  0
    1.7667   -0.3274   -5.6406 H   0  0  0  0  0  0  0  0  0  0  0  0
    2.7914    0.9725   -5.0966 H   0  0  0  0  0  0  0  0  0  0  0  0
    4.3846   -4.5199   -3.1353 H   0  0  0  0  0  0  0  0  0  0  0  0
    5.6211   -5.0961   -1.1266 H   0  0  0  0  0  0  0  0  0  0  0  0
    5.1392   -1.0363    0.0729 H   0  0  0  0  0  0  0  0  0  0  0  0
    3.8921   -0.4821   -1.9918 H   0  0  0  0  0  0  0  0  0  0  0  0
    7.5610   -2.9143    3.3205 H   0  0  0  0  0  0  0  0  0  0  0  0
    7.7641   -1.1613    2.9766 H   0  0  0  0  0  0  0  0  0  0  0  0
    8.8230   -3.4132    1.3917 H   0  0  0  0  0  0  0  0  0  0  0  0
    9.7642   -2.1707    2.4035 H   0  0  0  0  0  0  0  0  0  0  0  0
    7.6506    0.7434    0.7792 H   0  0  0  0  0  0  0  0  0  0  0  0
    6.7463    2.6801    0.0044 H   0  0  0  0  0  0  0  0  0  0  0  0
    8.8121    2.1702   -3.7617 H   0  0  0  0  0  0  0  0  0  0  0  0
    9.7725   -0.0463   -2.7990 H   0  0  0  0  0  0  0  0  0  0  0  0
    6.5810    6.4379   -4.2246 H   0  0  0  0  0  0  0  0  0  0  0  0
    6.7965    6.4386   -2.4341 H   0  0  0  0  0  0  0  0  0  0  0  0
    4.6899    5.1742   -4.2568 H   0  0  0  0  0  0  0  0  0  0  0  0
    4.8492    4.6164   -2.5711 H   0  0  0  0  0  0  0  0  0  0  0  0
    2.0597    5.9579   -1.3987 H   0  0  0  0  0  0  0  0  0  0  0  0
    0.1819    6.6349    0.0571 H   0  0  0  0  0  0  0  0  0  0  0  0
    0.4859   10.7178   -1.1169 H   0  0  0  0  0  0  0  0  0  0  0  0
    2.3282   10.0336   -2.5709 H   0  0  0  0  0  0  0  0  0  0  0  0
   -1.9864    8.1701    2.0941 H   0  0  0  0  0  0  0  0  0  0  0  0
  1  2  1  0
  2  3  1  0
  3  4  1  0
  4  5  1  0
  5  6  2  0
  5  7  1  0
  7  8  2  0
  8  9  1  0
  9 10  2  0
 10 11  1  0
 11 12  2  0
 10 13  1  0
 13 14  2  0
 13 15  1  0
 15 16  1  0
 16 17  1  0
 17 18  1  0
 18 19  1  0
 19 20  2  0
 19 21  1  0
 21 22  2  0
 22 23  1  0
 23 24  2  0
 24 25  1  0
 25 26  2  0
 24 27  1  0
 27 28  2  0
 27 29  1  0
 29 30  1  0
 30 31  1  0
 31 32  1  0
 32 33  1  0
 33 34  2  0
 33 35  1  0
 35 36  2  0
 36 37  1  0
 37 38  2  0
 38 39  1  0
 39 40  2  0
 38 41  1  0
 41 42  2  0
 41 43  1  0
 43 44  1  0
 44 45  1  0
 45 46  1  0
 46 47  1  0
 47 48  2  0
 47 49  1  0
 49 50  2  0
 50 51  1  0
 51 52  2  0
 52 53  1  0
 53 54  2  0
 52 55  1  0
 55 56  2  0
 55 57  1  0
 57 58  1  0
 58 59  1  0
 59 60  1  0
 60 61  1  0
 61 62  2  0
 61 63  1  0
 63 64  2  0
 64 65  1  0
 65 66  2  0
 66 67  1  0
 67 68  2  0
 66 69  1  0
 69 70  2  0
 69 71  1  0
 71 72  1  0
 72 73  1  0
 73 74  1  0
 74 75  1  0
 75 76  2  0
 75 77  1  0
 77 78  2  0
 78 79  1  0
 79 80  2  0
 80 81  1  0
 81 82  2  0
 80 83  1  0
 83 84  2  0
 83 85  1  0
 85 86  1  0
 86 87  1  0
 87 88  1  0
 88 89  1  0
 89 90  2  0
 89 91  1  0
 91 92  2  0
 92 93  1  0
 93 94  2  0
 94 95  1  0
 95 96  2  0
 94 97  1  0
 97 98  2  0
 97 99  1  0
 99100  1  0
100101  1  0
101102  1  0
102103  1  0
103104  2  0
103105  1  0
105106  2  0
106107  1  0
107108  2  0
108109  1  0
109110  2  0
108111  1  0
111112  2  0
111113  1  0
113114  1  0
114115  1  0
115116  1  0
116117  1  0
117118  2  0
117119  1  0
119120  2  0
120121  1  0
121122  2  0
122123  1  0
123124  2  0
122125  1  0
125126  2  0
125127  1  0
127128  1  0
128129  1  0
129130  1  0
130131  1  0
131132  2  0
131133  1  0
133134  2  0
134135  1  0
135136  2  0
136137  1  0
137138  2  0
136139  1  0
139140  2  0
139141  1  0
 12  7  1  0
 26 21  1  0
 40 35  1  0
 54 49  1  0
 68 63  1  0
 82 77  1  0
 96 91  1  0
110105  1  0
124119  1  0
138133  1  0
  1142  1  0
  2143  1  0
  2144  1  0
  3145  1  0
  3146  1  0
  8147  1  0
  9148  1  0
 11149  1  0
 12150  1  0
 16151  1  0
 16152  1  0
 17153  1  0
 17154  1  0
 22155  1  0
 23156  1  0
 25157  1  0
 26158  1  0
 30159  1  0
 30160  1  0
 31161  1  0
 31162  1  0
 36163  1  0
 37164  1  0
 39165  1  0
 40166  1  0
 44167  1  0
 44168  1  0
 45169  1  0
 45170  1  0
 50171  1  0
 51172  1  0
 53173  1  0
 54174  1  0
 58175  1  0
 58176  1  0
 59177  1  0
 59178  1  0
 64179  1  0
 65180  1  0
 67181  1  0
 68182  1  0
 72183  1  0
 72184  1  0
 73185  1  0
 73186  1  0
 78187  1  0
 79188  1  0
 81189  1  0
 82190  1  0
 86191  1  0
 86192  1  0
 87193  1  0
 87194  1  0
 92195  1  0
 93196  1  0
 95197  1  0
 96198  1  0
100199  1  0
100200  1  0
101201  1  0
101202  1  0
106203  1  0
107204  1  0
109205  1  0
110206  1  0
114207  1  0
114208  1  0
115209  1  0
115210  1  0
120211  1  0
121212  1  0
123213  1  0
124214  1  0
128215  1  0
128216  1  0
129217  1  0
129218  1  0
134219  1  0
135220  1  0
137221  1  0
138222  1  0
141223  1  0
M  END
$$$$
