
     RDKit          3D

123122  0  0  0  0  0  0  0  0999 V2000
   -6.4166    1.1045   -0.5847 O   0  0  0  0  0  0  0  0  0  0  0  0
   -6.9111    0.0000    0.0721 C   0  0  2  0  0  0  0  0  0  0  0  0
   -7.6207    0.4099    1.3585 C   0  0  0  0  0  0  0  0  0  0  0  0
   -5.8067   -0.9470    0.5000 C   0  0  0  0  0  0  0  0  0  0  0  0
   -5.0248   -1.4435   -0.6915 C   0  0  0  0  0  0  0  0  0  0  0  0
   -5.4327   -2.4273   -1.3730 O   0  0  0  0  0  0  0  0  0  0  0  0
   -3.8708   -0.7704   -0.9773 O   0  0  0  0  0  0  0  0  0  0  0  0
   -2.9739   -1.0456   -2.0373 C   0  0  2  0  0  0  0  0  0  0  0  0
   -1.6421   -1.3795   -1.4569 C   0  0  0  0  0  0  0  0  0  0  0  0
   -2.9173    0.1063   -3.0185 C   0  0  0  0  0  0  0  0  0  0  0  0
   -2.4632    1.3659   -2.3394 C   0  0  0  0  0  0  0  0  0  0  0  0
   -2.1655    1.3261   -1.1132 O   0  0  0  0  0  0  0  0  0  0  0  0
   -2.4027    2.4976   -3.1113 O   0  0  0  0  0  0  0  0  0  0  0  0
   -2.0274    3.7789   -2.7484 C   0  0  2  0  0  0  0  0  0  0  0  0
   -3.1853    4.7670   -2.7911 C   0  0  0  0  0  0  0  0  0  0  0  0
   -0.8580    4.3702   -3.4427 C   0  0  0  0  0  0  0  0  0  0  0  0
    0.4015    3.6082   -3.2515 C   0  0  0  0  0  0  0  0  0  0  0  0
    1.0055    3.7952   -2.1642 O   0  0  0  0  0  0  0  0  0  0  0  0
    0.9196    2.7325   -4.1939 O   0  0  0  0  0  0  0  0  0  0  0  0
    2.1323    2.0886   -3.8841 C   0  0  2  0  0  0  0  0  0  0  0  0
    3.1753    2.6209   -4.8783 C   0  0  0  0  0  0  0  0  0  0  0  0
    2.0515    0.5781   -3.9821 C   0  0  0  0  0  0  0  0  0  0  0  0
    3.3619   -0.0397   -3.6456 C   0  0  0  0  0  0  0  0  0  0  0  0
    4.3005    0.6943   -3.2078 O   0  0  0  0  0  0  0  0  0  0  0  0
    3.6475   -1.3868   -3.7797 O   0  0  0  0  0  0  0  0  0  0  0  0
    4.9291   -1.8566   -3.4366 C   0  0  2  0  0  0  0  0  0  0  0  0
    5.5683   -2.2358   -4.8181 C   0  0  0  0  0  0  0  0  0  0  0  0
    4.9772   -3.1062   -2.6542 C   0  0  0  0  0  0  0  0  0  0  0  0
    4.3065   -3.1268   -1.3518 C   0  0  0  0  0  0  0  0  0  0  0  0
    4.8117   -3.8809   -0.4519 O   0  0  0  0  0  0  0  0  0  0  0  0
    3.1826   -2.4176   -0.9990 O   0  0  0  0  0  0  0  0  0  0  0  0
    2.5707   -2.4813    0.2731 C   0  0  2  0  0  0  0  0  0  0  0  0
    1.2046   -3.1474    0.1881 C   0  0  0  0  0  0  0  0  0  0  0  0
    2.3868   -1.1680    0.9351 C   0  0  0  0  0  0  0  0  0  0  0  0
    3.6506   -0.4265    1.2011 C   0  0  0  0  0  0  0  0  0  0  0  0
    4.7856   -0.9679    1.0025 O   0  0  0  0  0  0  0  0  0  0  0  0
    3.5157    0.8666    1.6678 O   0  0  0  0  0  0  0  0  0  0  0  0
    4.6506    1.6408    1.9521 C   0  0  2  0  0  0  0  0  0  0  0  0
    4.6664    2.3303    3.2581 C   0  0  0  0  0  0  0  0  0  0  0  0
    4.7374    2.6390    0.7726 C   0  0  0  0  0  0  0  0  0  0  0  0
    3.4815    3.3910    0.7352 C   0  0  0  0  0  0  0  0  0  0  0  0
    3.3497    4.2179   -0.2309 O   0  0  0  0  0  0  0  0  0  0  0  0
    2.4439    3.2411    1.6845 O   0  0  0  0  0  0  0  0  0  0  0  0
    1.2715    4.0391    1.4637 C   0  0  2  0  0  0  0  0  0  0  0  0
    1.1717    5.0996    2.5681 C   0  0  0  0  0  0  0  0  0  0  0  0
    0.0211    3.2164    1.4049 C   0  0  0  0  0  0  0  0  0  0  0  0
   -0.2905    2.4790    2.6383 C   0  0  0  0  0  0  0  0  0  0  0  0
   -1.2052    2.9714    3.3739 O   0  0  0  0  0  0  0  0  0  0  0  0
    0.2913    1.3200    3.0950 O   0  0  0  0  0  0  0  0  0  0  0  0
   -0.1067    0.7067    4.3102 C   0  0  2  0  0  0  0  0  0  0  0  0
    1.0135    0.9472    5.3216 C   0  0  0  0  0  0  0  0  0  0  0  0
   -0.4686   -0.7216    4.2353 C   0  0  0  0  0  0  0  0  0  0  0  0
   -1.5819   -1.0339    3.3371 C   0  0  0  0  0  0  0  0  0  0  0  0
   -2.1757   -0.2050    2.6131 O   0  0  0  0  0  0  0  0  0  0  0  0
   -1.9981   -2.3737    3.3028 O   0  0  0  0  0  0  0  0  0  0  0  0
   -3.0283   -2.8857    2.5173 C   0  0  2  0  0  0  0  0  0  0  0  0
   -4.1346   -3.4058    3.4156 C   0  0  0  0  0  0  0  0  0  0  0  0
   -2.5844   -3.9981    1.6160 C   0  0  0  0  0  0  0  0  0  0  0  0
   -2.0244   -5.1346    2.3494 C   0  0  0  0  0  0  0  0  0  0  0  0
   -1.7148   -6.1679    1.6721 O   0  0  0  0  0  0  0  0  0  0  0  0
   -1.7966   -5.1962    3.7051 O   0  0  0  0  0  0  0  0  0  0  0  0
   -5.8947    1.6235    0.0593 H   0  0  0  0  0  0  0  0  0  0  0  0
   -7.6379   -0.5108   -0.5914 H   0  0  0  0  0  0  0  0  0  0  0  0
   -8.6155    0.8255    1.1601 H   0  0  0  0  0  0  0  0  0  0  0  0
   -7.7060   -0.3948    2.0886 H   0  0  0  0  0  0  0  0  0  0  0  0
   -7.0256    1.2276    1.8305 H   0  0  0  0  0  0  0  0  0  0  0  0
   -6.2495   -1.8371    0.9801 H   0  0  0  0  0  0  0  0  0  0  0  0
   -5.1424   -0.4681    1.2339 H   0  0  0  0  0  0  0  0  0  0  0  0
   -3.3253   -1.9159   -2.6345 H   0  0  0  0  0  0  0  0  0  0  0  0
   -0.7909   -1.1981   -2.1789 H   0  0  0  0  0  0  0  0  0  0  0  0
   -1.6174   -2.4993   -1.2961 H   0  0  0  0  0  0  0  0  0  0  0  0
   -1.4476   -0.9534   -0.4729 H   0  0  0  0  0  0  0  0  0  0  0  0
   -3.9261    0.2004   -3.4650 H   0  0  0  0  0  0  0  0  0  0  0  0
   -2.2140   -0.1237   -3.8340 H   0  0  0  0  0  0  0  0  0  0  0  0
   -1.7577    3.7274   -1.6511 H   0  0  0  0  0  0  0  0  0  0  0  0
   -3.5693    4.8977   -3.8127 H   0  0  0  0  0  0  0  0  0  0  0  0
   -2.9044    5.7458   -2.3902 H   0  0  0  0  0  0  0  0  0  0  0  0
   -3.9513    4.3310   -2.1022 H   0  0  0  0  0  0  0  0  0  0  0  0
   -0.6784    5.4093   -3.0392 H   0  0  0  0  0  0  0  0  0  0  0  0
   -0.9978    4.4822   -4.5406 H   0  0  0  0  0  0  0  0  0  0  0  0
    2.4640    2.4072   -2.8975 H   0  0  0  0  0  0  0  0  0  0  0  0
    3.7108    3.4975   -4.4527 H   0  0  0  0  0  0  0  0  0  0  0  0
    3.9053    1.8659   -5.1682 H   0  0  0  0  0  0  0  0  0  0  0  0
    2.6443    3.0281   -5.7899 H   0  0  0  0  0  0  0  0  0  0  0  0
    1.2349    0.2004   -3.3632 H   0  0  0  0  0  0  0  0  0  0  0  0
    1.8328    0.3015   -5.0459 H   0  0  0  0  0  0  0  0  0  0  0  0
    5.5296   -1.0392   -3.0246 H   0  0  0  0  0  0  0  0  0  0  0  0
    6.6125   -2.5671   -4.6626 H   0  0  0  0  0  0  0  0  0  0  0  0
    4.9886   -3.1254   -5.1424 H   0  0  0  0  0  0  0  0  0  0  0  0
    5.4997   -1.3751   -5.5016 H   0  0  0  0  0  0  0  0  0  0  0  0
    4.5724   -3.9828   -3.2415 H   0  0  0  0  0  0  0  0  0  0  0  0
    6.0750   -3.3784   -2.5572 H   0  0  0  0  0  0  0  0  0  0  0  0
    3.1801   -3.1578    0.9004 H   0  0  0  0  0  0  0  0  0  0  0  0
    1.3749   -4.2612    0.0810 H   0  0  0  0  0  0  0  0  0  0  0  0
    0.6014   -2.9702    1.0783 H   0  0  0  0  0  0  0  0  0  0  0  0
    0.7427   -2.8221   -0.7571 H   0  0  0  0  0  0  0  0  0  0  0  0
    1.6491   -0.5197    0.3915 H   0  0  0  0  0  0  0  0  0  0  0  0
    1.9038   -1.3555    1.9207 H   0  0  0  0  0  0  0  0  0  0  0  0
    5.5407    0.9397    1.8053 H   0  0  0  0  0  0  0  0  0  0  0  0
    5.6290    2.0543    3.7817 H   0  0  0  0  0  0  0  0  0  0  0  0
    3.8792    2.0685    3.9709 H   0  0  0  0  0  0  0  0  0  0  0  0
    4.7657    3.4522    3.1482 H   0  0  0  0  0  0  0  0  0  0  0  0
    4.7785    1.9826   -0.1232 H   0  0  0  0  0  0  0  0  0  0  0  0
    5.6268    3.2694    0.8724 H   0  0  0  0  0  0  0  0  0  0  0  0
    1.4126    4.6017    0.5304 H   0  0  0  0  0  0  0  0  0  0  0  0
    2.1193    5.2531    3.0853 H   0  0  0  0  0  0  0  0  0  0  0  0
    0.7717    6.0266    2.1087 H   0  0  0  0  0  0  0  0  0  0  0  0
    0.3695    4.7157    3.2675 H   0  0  0  0  0  0  0  0  0  0  0  0
   -0.8359    3.8550    1.0821 H   0  0  0  0  0  0  0  0  0  0  0  0
    0.1599    2.5144    0.5299 H   0  0  0  0  0  0  0  0  0  0  0  0
   -0.9546    1.3025    4.7008 H   0  0  0  0  0  0  0  0  0  0  0  0
    0.9201    1.9369    5.8130 H   0  0  0  0  0  0  0  0  0  0  0  0
    1.9734    0.9403    4.7745 H   0  0  0  0  0  0  0  0  0  0  0  0
    1.0720    0.0971    6.0408 H   0  0  0  0  0  0  0  0  0  0  0  0
    0.4277   -1.3535    4.0061 H   0  0  0  0  0  0  0  0  0  0  0  0
   -0.7844   -1.0382    5.2724 H   0  0  0  0  0  0  0  0  0  0  0  0
   -3.4923   -2.0842    1.8646 H   0  0  0  0  0  0  0  0  0  0  0  0
   -4.5259   -2.5705    4.0700 H   0  0  0  0  0  0  0  0  0  0  0  0
   -3.8546   -4.2416    4.0485 H   0  0  0  0  0  0  0  0  0  0  0  0
   -5.0072   -3.7251    2.7855 H   0  0  0  0  0  0  0  0  0  0  0  0
   -1.8385   -3.6472    0.8698 H   0  0  0  0  0  0  0  0  0  0  0  0
   -3.4892   -4.3687    1.0580 H   0  0  0  0  0  0  0  0  0  0  0  0
   -1.6956   -6.0391    4.2433 H   0  0  0  0  0  0  0  0  0  0  0  0
  1  2  1  0
  2  3  1  0
  2  4  1  0
  4  5  1  0
  5  6  2  0
  5  7  1  0
  7  8  1  0
  8  9  1  0
  8 10  1  0
 10 11  1  0
 11 12  2  0
 11 13  1  0
 13 14  1  0
 14 15  1  0
 14 16  1  0
 16 17  1  0
 17 18  2  0
 17 19  1  0
 19 20  1  0
 20 21  1  0
 20 22  1  0
 22 23  1  0
 23 24  2  0
 23 25  1  0
 25 26  1  0
 26 27  1  0
 26 28  1  0
 28 29  1  0
 29 30  2  0
 29 31  1  0
 31 32  1  0
 32 33  1  0
 32 34  1  0
 34 35  1  0
 35 36  2  0
 35 37  1  0
 37 38  1  0
 38 39  1  0
 38 40  1  0
 40 41  1  0
 41 42  2  0
 41 43  1  0
 43 44  1  0
 44 45  1  0
 44 46  1  0
 46 47  1  0
 47 48  2  0
 47 49  1  0
 49 50  1  0
 50 51  1  0
 50 52  1  0
 52 53  1  0
 53 54  2  0
 53 55  1  0
 55 56  1  0
 56 57  1  0
 56 58  1  0
 58 59  1  0
 59 60  2  0
 59 61  1  0
  1 62  1  0
  2 63  1  6
  3 64  1  0
  3 65  1  0
  3 66  1  0
  4 67  1  0
  4 68  1  0
  8 69  1  6
  9 70  1  0
  9 71  1  0
  9 72  1  0
 10 73  1  0
 10 74  1  0
 14 75  1  1
 15 76  1  0
 15 77  1  0
 15 78  1  0
 16 79  1  0
 16 80  1  0
 20 81  1  1
 21 82  1  0
 21 83  1  0
 21 84  1  0
 22 85  1  0
 22 86  1  0
 26 87  1  1
 27 88  1  0
 27 89  1  0
 27 90  1  0
 28 91  1  0
 28 92  1  0
 32 93  1  1
 33 94  1  0
 33 95  1  0
 33 96  1  0
 34 97  1  0
 34 98  1  0
 38 99  1  1
 39100  1  0
 39101  1  0
 39102  1  0
 40103  1  0
 40104  1  0
 44105  1  6
 45106  1  0
 45107  1  0
 45108  1  0
 46109  1  0
 46110  1  0
 50111  1  1
 51112  1  0
 51113  1  0
 51114  1  0
 52115  1  0
 52116  1  0
 56117  1  6
 57118  1  0
 57119  1  0
 57120  1  0
 58121  1  0
 58122  1  0
 61123  1  0
M  END
$$$$
