
     RDKit          3D

153152  0  0  0  0  0  0  0  0999 V2000
   -1.5589    6.7896    1.8844 O   0  0  0  0  0  0  0  0  0  0  0  0
   -2.2542    6.2747    0.7633 C   0  0  0  0  0  0  0  0  0  0  0  0
   -2.7498    4.9219    1.1651 C   0  0  0  0  0  0  0  0  0  0  0  0
   -3.6751    5.0965    2.3619 C   0  0  0  0  0  0  0  0  0  0  0  0
   -1.2789    6.2780   -0.3613 C   0  0  0  0  0  0  0  0  0  0  0  0
   -1.8324    5.7733   -1.6439 C   0  0  0  0  0  0  0  0  0  0  0  0
   -2.9985    5.3470   -1.7923 O   0  0  0  0  0  0  0  0  0  0  0  0
   -1.0011    5.7802   -2.7394 O   0  0  0  0  0  0  0  0  0  0  0  0
   -1.4708    5.3201   -3.9907 C   0  0  0  0  0  0  0  0  0  0  0  0
   -1.5247    6.5820   -4.8793 C   0  0  0  0  0  0  0  0  0  0  0  0
   -0.1102    7.1086   -4.9368 C   0  0  0  0  0  0  0  0  0  0  0  0
   -0.5579    4.3837   -4.6989 C   0  0  0  0  0  0  0  0  0  0  0  0
   -0.2313    3.1304   -4.0492 C   0  0  0  0  0  0  0  0  0  0  0  0
    0.6971    2.4146   -4.5638 O   0  0  0  0  0  0  0  0  0  0  0  0
   -0.8174    2.5862   -2.9082 O   0  0  0  0  0  0  0  0  0  0  0  0
   -0.3656    1.3135   -2.4270 C   0  0  0  0  0  0  0  0  0  0  0  0
   -1.5140    0.3278   -2.5719 C   0  0  0  0  0  0  0  0  0  0  0  0
   -1.1973   -1.0581   -2.1390 C   0  0  0  0  0  0  0  0  0  0  0  0
    0.0415    1.4976   -0.9898 C   0  0  0  0  0  0  0  0  0  0  0  0
    1.1104    2.4780   -0.7685 C   0  0  0  0  0  0  0  0  0  0  0  0
    1.1944    2.9957    0.4015 O   0  0  0  0  0  0  0  0  0  0  0  0
    2.0382    2.9098   -1.6974 O   0  0  0  0  0  0  0  0  0  0  0  0
    3.0061    3.8738   -1.4561 C   0  0  0  0  0  0  0  0  0  0  0  0
    2.6289    5.1664   -2.2567 C   0  0  0  0  0  0  0  0  0  0  0  0
    3.6599    6.2338   -2.0087 C   0  0  0  0  0  0  0  0  0  0  0  0
    4.3827    3.5771   -1.7926 C   0  0  0  0  0  0  0  0  0  0  0  0
    5.2094    2.5599   -1.2378 C   0  0  0  0  0  0  0  0  0  0  0  0
    6.5107    2.8531   -1.2641 O   0  0  0  0  0  0  0  0  0  0  0  0
    5.0123    1.3132   -0.6630 O   0  0  0  0  0  0  0  0  0  0  0  0
    6.1616    0.5983   -0.1833 C   0  0  0  0  0  0  0  0  0  0  0  0
    6.0013    0.1886    1.2574 C   0  0  0  0  0  0  0  0  0  0  0  0
    5.8054    1.3697    2.1764 C   0  0  0  0  0  0  0  0  0  0  0  0
    6.3528   -0.6249   -1.0202 C   0  0  0  0  0  0  0  0  0  0  0  0
    5.2941   -1.6209   -0.9903 C   0  0  0  0  0  0  0  0  0  0  0  0
    5.5550   -2.7371   -0.4095 O   0  0  0  0  0  0  0  0  0  0  0  0
    4.0309   -1.5102   -1.5174 O   0  0  0  0  0  0  0  0  0  0  0  0
    3.1312   -2.5609   -1.4253 C   0  0  0  0  0  0  0  0  0  0  0  0
    2.6647   -2.9955   -2.7874 C   0  0  0  0  0  0  0  0  0  0  0  0
    1.6830   -4.1692   -2.6715 C   0  0  0  0  0  0  0  0  0  0  0  0
    1.9495   -2.2787   -0.5508 C   0  0  0  0  0  0  0  0  0  0  0  0
    2.2176   -2.0322    0.8669 C   0  0  0  0  0  0  0  0  0  0  0  0
    3.1892   -2.4726    1.5101 O   0  0  0  0  0  0  0  0  0  0  0  0
    1.2878   -1.2234    1.5474 O   0  0  0  0  0  0  0  0  0  0  0  0
    1.3901   -0.9313    2.9249 C   0  0  0  0  0  0  0  0  0  0  0  0
    1.8384    0.4938    3.2001 C   0  0  0  0  0  0  0  0  0  0  0  0
    1.8820    0.6252    4.7172 C   0  0  0  0  0  0  0  0  0  0  0  0
    0.0746   -1.2181    3.5728 C   0  0  0  0  0  0  0  0  0  0  0  0
   -1.0225   -0.3960    3.0062 C   0  0  0  0  0  0  0  0  0  0  0  0
   -0.7330    0.5079    2.1641 O   0  0  0  0  0  0  0  0  0  0  0  0
   -2.3638   -0.5243    3.3177 O   0  0  0  0  0  0  0  0  0  0  0  0
   -3.3339    0.3568    2.7235 C   0  0  0  0  0  0  0  0  0  0  0  0
   -4.1470    1.0927    3.7258 C   0  0  0  0  0  0  0  0  0  0  0  0
   -5.1184    1.9717    2.9740 C   0  0  0  0  0  0  0  0  0  0  0  0
   -4.1651   -0.2939    1.6737 C   0  0  0  0  0  0  0  0  0  0  0  0
   -4.9820   -1.4384    2.0661 C   0  0  0  0  0  0  0  0  0  0  0  0
   -6.0677   -1.3142    2.7167 O   0  0  0  0  0  0  0  0  0  0  0  0
   -4.5368   -2.7110    1.6996 O   0  0  0  0  0  0  0  0  0  0  0  0
   -5.1937   -3.9107    1.9666 C   0  0  0  0  0  0  0  0  0  0  0  0
   -5.6895   -4.4821    0.6697 C   0  0  0  0  0  0  0  0  0  0  0  0
   -4.6690   -4.7806   -0.3615 C   0  0  0  0  0  0  0  0  0  0  0  0
   -4.5229   -4.8569    2.8899 C   0  0  0  0  0  0  0  0  0  0  0  0
   -3.1919   -5.3342    2.5338 C   0  0  0  0  0  0  0  0  0  0  0  0
   -2.4710   -4.9918    1.5910 O   0  0  0  0  0  0  0  0  0  0  0  0
   -2.6564   -6.3359    3.3972 O   0  0  0  0  0  0  0  0  0  0  0  0
   -1.3688   -6.8621    3.1436 C   0  0  0  0  0  0  0  0  0  0  0  0
   -0.4054   -6.7089    4.2648 C   0  0  0  0  0  0  0  0  0  0  0  0
    0.9154   -7.3099    3.8308 C   0  0  0  0  0  0  0  0  0  0  0  0
   -1.5489   -8.2935    2.6662 C   0  0  0  0  0  0  0  0  0  0  0  0
   -2.2392   -9.0764    3.7046 C   0  0  0  0  0  0  0  0  0  0  0  0
   -2.6242   -8.6251    4.8059 O   0  0  0  0  0  0  0  0  0  0  0  0
   -2.4751  -10.4298    3.4208 O   0  0  0  0  0  0  0  0  0  0  0  0
   -1.8876    7.6835    2.1497 H   0  0  0  0  0  0  0  0  0  0  0  0
   -3.0831    6.9851    0.5709 H   0  0  0  0  0  0  0  0  0  0  0  0
   -1.8988    4.2605    1.4139 H   0  0  0  0  0  0  0  0  0  0  0  0
   -3.3284    4.4891    0.3345 H   0  0  0  0  0  0  0  0  0  0  0  0
   -3.4990    6.0867    2.8215 H   0  0  0  0  0  0  0  0  0  0  0  0
   -3.4538    4.3301    3.1385 H   0  0  0  0  0  0  0  0  0  0  0  0
   -4.7199    5.0282    2.0281 H   0  0  0  0  0  0  0  0  0  0  0  0
   -0.3235    5.7911   -0.0757 H   0  0  0  0  0  0  0  0  0  0  0  0
   -1.0299    7.3682   -0.5736 H   0  0  0  0  0  0  0  0  0  0  0  0
   -2.5249    4.9640   -3.8930 H   0  0  0  0  0  0  0  0  0  0  0  0
   -2.2005    7.3278   -4.4050 H   0  0  0  0  0  0  0  0  0  0  0  0
   -1.8368    6.2519   -5.8669 H   0  0  0  0  0  0  0  0  0  0  0  0
   -0.0766    8.2202   -4.8746 H   0  0  0  0  0  0  0  0  0  0  0  0
    0.4122    6.8296   -5.8673 H   0  0  0  0  0  0  0  0  0  0  0  0
    0.4673    6.7467   -4.0371 H   0  0  0  0  0  0  0  0  0  0  0  0
    0.3434    4.9747   -5.0243 H   0  0  0  0  0  0  0  0  0  0  0  0
   -1.0684    4.1841   -5.7044 H   0  0  0  0  0  0  0  0  0  0  0  0
    0.4568    0.9007   -3.0183 H   0  0  0  0  0  0  0  0  0  0  0  0
   -2.3794    0.7574   -2.0399 H   0  0  0  0  0  0  0  0  0  0  0  0
   -1.7973    0.2851   -3.6441 H   0  0  0  0  0  0  0  0  0  0  0  0
   -0.3009   -1.4865   -2.6334 H   0  0  0  0  0  0  0  0  0  0  0  0
   -1.1250   -1.1550   -1.0441 H   0  0  0  0  0  0  0  0  0  0  0  0
   -2.0257   -1.7617   -2.4592 H   0  0  0  0  0  0  0  0  0  0  0  0
    0.2409    0.5177   -0.5163 H   0  0  0  0  0  0  0  0  0  0  0  0
   -0.8821    1.9116   -0.4619 H   0  0  0  0  0  0  0  0  0  0  0  0
    2.9599    4.2251   -0.3783 H   0  0  0  0  0  0  0  0  0  0  0  0
    1.6103    5.4782   -1.9968 H   0  0  0  0  0  0  0  0  0  0  0  0
    2.6456    4.9460   -3.3427 H   0  0  0  0  0  0  0  0  0  0  0  0
    3.1867    7.2431   -2.1702 H   0  0  0  0  0  0  0  0  0  0  0  0
    4.0788    6.2076   -0.9783 H   0  0  0  0  0  0  0  0  0  0  0  0
    4.5069    6.2216   -2.7223 H   0  0  0  0  0  0  0  0  0  0  0  0
    4.9852    4.5718   -1.6826 H   0  0  0  0  0  0  0  0  0  0  0  0
    4.4008    3.5436   -2.9587 H   0  0  0  0  0  0  0  0  0  0  0  0
    7.1015    1.1806   -0.2696 H   0  0  0  0  0  0  0  0  0  0  0  0
    5.1948   -0.5500    1.4112 H   0  0  0  0  0  0  0  0  0  0  0  0
    6.9474   -0.2990    1.5615 H   0  0  0  0  0  0  0  0  0  0  0  0
    4.8921    1.9623    1.9552 H   0  0  0  0  0  0  0  0  0  0  0  0
    6.6622    2.0727    2.1271 H   0  0  0  0  0  0  0  0  0  0  0  0
    5.7230    1.0043    3.2139 H   0  0  0  0  0  0  0  0  0  0  0  0
    7.3322   -1.1069   -0.7053 H   0  0  0  0  0  0  0  0  0  0  0  0
    6.4936   -0.3371   -2.1042 H   0  0  0  0  0  0  0  0  0  0  0  0
    3.6234   -3.4631   -0.9334 H   0  0  0  0  0  0  0  0  0  0  0  0
    2.0378   -2.1783   -3.2601 H   0  0  0  0  0  0  0  0  0  0  0  0
    3.4842   -3.1916   -3.5048 H   0  0  0  0  0  0  0  0  0  0  0  0
    1.7861   -4.8663   -3.5019 H   0  0  0  0  0  0  0  0  0  0  0  0
    2.0259   -4.7144   -1.7377 H   0  0  0  0  0  0  0  0  0  0  0  0
    0.6534   -3.8322   -2.4415 H   0  0  0  0  0  0  0  0  0  0  0  0
    1.2417   -3.1643   -0.5732 H   0  0  0  0  0  0  0  0  0  0  0  0
    1.3744   -1.4335   -0.9810 H   0  0  0  0  0  0  0  0  0  0  0  0
    2.1811   -1.5339    3.4277 H   0  0  0  0  0  0  0  0  0  0  0  0
    2.8855    0.6442    2.8505 H   0  0  0  0  0  0  0  0  0  0  0  0
    1.2457    1.2850    2.7976 H   0  0  0  0  0  0  0  0  0  0  0  0
    2.1161   -0.3702    5.1980 H   0  0  0  0  0  0  0  0  0  0  0  0
    0.8857    0.9010    5.1342 H   0  0  0  0  0  0  0  0  0  0  0  0
    2.6674    1.3127    5.0587 H   0  0  0  0  0  0  0  0  0  0  0  0
    0.1609   -0.9883    4.6385 H   0  0  0  0  0  0  0  0  0  0  0  0
   -0.2400   -2.2772    3.4131 H   0  0  0  0  0  0  0  0  0  0  0  0
   -2.7101    1.1164    2.1376 H   0  0  0  0  0  0  0  0  0  0  0  0
   -3.4601    1.7312    4.3170 H   0  0  0  0  0  0  0  0  0  0  0  0
   -4.7197    0.3669    4.3236 H   0  0  0  0  0  0  0  0  0  0  0  0
   -6.1045    1.4856    2.8164 H   0  0  0  0  0  0  0  0  0  0  0  0
   -5.3144    2.8549    3.6544 H   0  0  0  0  0  0  0  0  0  0  0  0
   -4.6967    2.3884    2.0557 H   0  0  0  0  0  0  0  0  0  0  0  0
   -3.5451   -0.4816    0.7695 H   0  0  0  0  0  0  0  0  0  0  0  0
   -4.8966    0.4967    1.3245 H   0  0  0  0  0  0  0  0  0  0  0  0
   -6.1874   -3.6812    2.5243 H   0  0  0  0  0  0  0  0  0  0  0  0
   -6.3377   -5.3679    0.8217 H   0  0  0  0  0  0  0  0  0  0  0  0
   -6.3705   -3.6930    0.2314 H   0  0  0  0  0  0  0  0  0  0  0  0
   -4.3133   -5.8124   -0.2511 H   0  0  0  0  0  0  0  0  0  0  0  0
   -3.8959   -4.0057   -0.4802 H   0  0  0  0  0  0  0  0  0  0  0  0
   -5.2070   -4.7786   -1.3596 H   0  0  0  0  0  0  0  0  0  0  0  0
   -5.2570   -5.7081    3.0408 H   0  0  0  0  0  0  0  0  0  0  0  0
   -4.5356   -4.3622    3.9075 H   0  0  0  0  0  0  0  0  0  0  0  0
   -0.9567   -6.3177    2.2526 H   0  0  0  0  0  0  0  0  0  0  0  0
   -0.7607   -7.1778    5.2130 H   0  0  0  0  0  0  0  0  0  0  0  0
   -0.2227   -5.6172    4.3976 H   0  0  0  0  0  0  0  0  0  0  0  0
    0.9091   -8.3842    4.0750 H   0  0  0  0  0  0  0  0  0  0  0  0
    0.9624   -7.2555    2.7047 H   0  0  0  0  0  0  0  0  0  0  0  0
    1.7880   -6.7808    4.2636 H   0  0  0  0  0  0  0  0  0  0  0  0
   -2.2014   -8.2218    1.7682 H   0  0  0  0  0  0  0  0  0  0  0  0
   -0.5743   -8.7333    2.3831 H   0  0  0  0  0  0  0  0  0  0  0  0
   -3.2494  -10.9302    3.8682 H   0  0  0  0  0  0  0  0  0  0  0  0
  1  2  1  0
  2  3  1  0
  3  4  1  0
  2  5  1  0
  5  6  1  0
  6  7  2  0
  6  8  1  0
  8  9  1  0
  9 10  1  0
 10 11  1  0
  9 12  1  0
 12 13  1  0
 13 14  2  0
 13 15  1  0
 15 16  1  0
 16 17  1  0
 17 18  1  0
 16 19  1  0
 19 20  1  0
 20 21  2  0
 20 22  1  0
 22 23  1  0
 23 24  1  0
 24 25  1  0
 23 26  1  0
 26 27  1  0
 27 28  2  0
 27 29  1  0
 29 30  1  0
 30 31  1  0
 31 32  1  0
 30 33  1  0
 33 34  1  0
 34 35  2  0
 34 36  1  0
 36 37  1  0
 37 38  1  0
 38 39  1  0
 37 40  1  0
 40 41  1  0
 41 42  2  0
 41 43  1  0
 43 44  1  0
 44 45  1  0
 45 46  1  0
 44 47  1  0
 47 48  1  0
 48 49  2  0
 48 50  1  0
 50 51  1  0
 51 52  1  0
 52 53  1  0
 51 54  1  0
 54 55  1  0
 55 56  2  0
 55 57  1  0
 57 58  1  0
 58 59  1  0
 59 60  1  0
 58 61  1  0
 61 62  1  0
 62 63  2  0
 62 64  1  0
 64 65  1  0
 65 66  1  0
 66 67  1  0
 65 68  1  0
 68 69  1  0
 69 70  2  0
 69 71  1  0
  1 72  1  0
  2 73  1  0
  3 74  1  0
  3 75  1  0
  4 76  1  0
  4 77  1  0
  4 78  1  0
  5 79  1  0
  5 80  1  0
  9 81  1  0
 10 82  1  0
 10 83  1  0
 11 84  1  0
 11 85  1  0
 11 86  1  0
 12 87  1  0
 12 88  1  0
 16 89  1  0
 17 90  1  0
 17 91  1  0
 18 92  1  0
 18 93  1  0
 18 94  1  0
 19 95  1  0
 19 96  1  0
 23 97  1  0
 24 98  1  0
 24 99  1  0
 25100  1  0
 25101  1  0
 25102  1  0
 26103  1  0
 26104  1  0
 30105  1  0
 31106  1  0
 31107  1  0
 32108  1  0
 32109  1  0
 32110  1  0
 33111  1  0
 33112  1  0
 37113  1  0
 38114  1  0
 38115  1  0
 39116  1  0
 39117  1  0
 39118  1  0
 40119  1  0
 40120  1  0
 44121  1  0
 45122  1  0
 45123  1  0
 46124  1  0
 46125  1  0
 46126  1  0
 47127  1  0
 47128  1  0
 51129  1  0
 52130  1  0
 52131  1  0
 53132  1  0
 53133  1  0
 53134  1  0
 54135  1  0
 54136  1  0
 58137  1  0
 59138  1  0
 59139  1  0
 60140  1  0
 60141  1  0
 60142  1  0
 61143  1  0
 61144  1  0
 65145  1  0
 66146  1  0
 66147  1  0
 67148  1  0
 67149  1  0
 67150  1  0
 68151  1  0
 68152  1  0
 71153  1  0
M  END
$$$$
