
     RDKit          3D

168167  0  0  0  0  0  0  0  0999 V2000
    8.8124    1.6670   -4.3925 O   0  0  0  0  0  0  0  0  0  0  0  0
    7.4543    1.4729   -4.0559 C   0  0  0  0  0  0  0  0  0  0  0  0
    7.1811    1.8781   -2.6397 C   0  0  0  0  0  0  0  0  0  0  0  0
    5.7555    1.6780   -2.2529 C   0  0  0  0  0  0  0  0  0  0  0  0
    4.7928    2.4733   -3.0910 C   0  0  0  0  0  0  0  0  0  0  0  0
    4.9900    3.9524   -3.0468 C   0  0  0  0  0  0  0  0  0  0  0  0
    4.8644    4.5580   -1.6986 C   0  0  0  0  0  0  0  0  0  0  0  0
    5.8423    4.8946   -0.9875 O   0  0  0  0  0  0  0  0  0  0  0  0
    3.5924    4.7556   -1.2090 O   0  0  0  0  0  0  0  0  0  0  0  0
    3.2010    5.2955   -0.0037 C   0  0  0  0  0  0  0  0  0  0  0  0
    3.7271    4.6042    1.2293 C   0  0  0  0  0  0  0  0  0  0  0  0
    3.1290    5.3374    2.4087 C   0  0  0  0  0  0  0  0  0  0  0  0
    3.5659    4.7831    3.7520 C   0  0  0  0  0  0  0  0  0  0  0  0
    2.8004    5.6180    4.7513 C   0  0  0  0  0  0  0  0  0  0  0  0
    3.2963    6.1613    5.7427 O   0  0  0  0  0  0  0  0  0  0  0  0
    1.4583    5.7526    4.4938 O   0  0  0  0  0  0  0  0  0  0  0  0
    0.4906    6.4503    5.2206 C   0  0  0  0  0  0  0  0  0  0  0  0
   -0.8335    6.2474    4.4053 C   0  0  0  0  0  0  0  0  0  0  0  0
   -1.1324    4.8029    4.3113 C   0  0  0  0  0  0  0  0  0  0  0  0
   -2.2465    4.2990    3.5134 C   0  0  0  0  0  0  0  0  0  0  0  0
   -3.6455    4.6997    3.7381 C   0  0  0  0  0  0  0  0  0  0  0  0
   -4.0587    6.0737    3.4901 C   0  0  0  0  0  0  0  0  0  0  0  0
   -5.3209    6.3172    3.6446 O   0  0  0  0  0  0  0  0  0  0  0  0
   -3.3131    7.1581    3.1115 O   0  0  0  0  0  0  0  0  0  0  0  0
   -3.9432    8.3888    2.9051 C   0  0  0  0  0  0  0  0  0  0  0  0
   -4.8546    8.3933    1.6720 C   0  0  0  0  0  0  0  0  0  0  0  0
   -4.0689    8.1897    0.4239 C   0  0  0  0  0  0  0  0  0  0  0  0
   -3.3020    6.9489    0.2451 C   0  0  0  0  0  0  0  0  0  0  0  0
   -4.0626    5.6986    0.1892 C   0  0  0  0  0  0  0  0  0  0  0  0
   -5.3370    5.6435    0.2829 O   0  0  0  0  0  0  0  0  0  0  0  0
   -3.4328    4.4735    0.0254 O   0  0  0  0  0  0  0  0  0  0  0  0
   -4.1904    3.2830   -0.0439 C   0  0  0  0  0  0  0  0  0  0  0  0
   -3.2842    2.0692   -0.2151 C   0  0  0  0  0  0  0  0  0  0  0  0
   -4.1823    0.8786   -0.3319 C   0  0  0  0  0  0  0  0  0  0  0  0
   -3.4272   -0.4486   -0.4903 C   0  0  0  0  0  0  0  0  0  0  0  0
   -4.4469   -1.5653   -0.6442 C   0  0  0  0  0  0  0  0  0  0  0  0
   -3.9531   -2.9142   -0.7738 C   0  0  0  0  0  0  0  0  0  0  0  0
   -4.2597   -3.7956    0.1119 O   0  0  0  0  0  0  0  0  0  0  0  0
   -3.1396   -3.4283   -1.7974 O   0  0  0  0  0  0  0  0  0  0  0  0
   -2.7967   -4.8271   -1.7557 C   0  0  0  0  0  0  0  0  0  0  0  0
   -1.9264   -5.1808   -2.9147 C   0  0  0  0  0  0  0  0  0  0  0  0
   -1.6389   -6.6389   -3.0078 C   0  0  0  0  0  0  0  0  0  0  0  0
   -0.9532   -7.2926   -1.8834 C   0  0  0  0  0  0  0  0  0  0  0  0
    0.3996   -6.8708   -1.5367 C   0  0  0  0  0  0  0  0  0  0  0  0
    0.9555   -7.5231   -0.5830 O   0  0  0  0  0  0  0  0  0  0  0  0
    1.1453   -5.8735   -2.0978 O   0  0  0  0  0  0  0  0  0  0  0  0
    2.4826   -5.6018   -1.6370 C   0  0  0  0  0  0  0  0  0  0  0  0
    3.4219   -6.7381   -1.8827 C   0  0  0  0  0  0  0  0  0  0  0  0
    3.5841   -7.1181   -3.2984 C   0  0  0  0  0  0  0  0  0  0  0  0
    4.1946   -6.2040   -4.2697 C   0  0  0  0  0  0  0  0  0  0  0  0
    3.6059   -4.8870   -4.5595 C   0  0  0  0  0  0  0  0  0  0  0  0
    2.2066   -4.9090   -5.0695 C   0  0  0  0  0  0  0  0  0  0  0  0
    1.6020   -5.9473   -5.4120 O   0  0  0  0  0  0  0  0  0  0  0  0
    1.5655   -3.6955   -5.1551 O   0  0  0  0  0  0  0  0  0  0  0  0
    0.2885   -3.4086   -5.5893 C   0  0  0  0  0  0  0  0  0  0  0  0
    0.0610   -1.9288   -5.3783 C   0  0  0  0  0  0  0  0  0  0  0  0
    0.1426   -1.4779   -3.9580 C   0  0  0  0  0  0  0  0  0  0  0  0
    1.4241   -1.6914   -3.2461 C   0  0  0  0  0  0  0  0  0  0  0  0
    1.3244   -1.1682   -1.8321 C   0  0  0  0  0  0  0  0  0  0  0  0
    1.3800    0.0572   -1.5738 O   0  0  0  0  0  0  0  0  0  0  0  0
    1.1664   -2.1471   -0.8369 O   0  0  0  0  0  0  0  0  0  0  0  0
    1.0707   -1.7134    0.4994 C   0  0  0  0  0  0  0  0  0  0  0  0
    0.8938   -2.8801    1.4834 C   0  0  0  0  0  0  0  0  0  0  0  0
   -0.3342   -3.6511    1.1955 C   0  0  0  0  0  0  0  0  0  0  0  0
   -0.6937   -4.8313    1.9891 C   0  0  0  0  0  0  0  0  0  0  0  0
   -0.9430   -4.7429    3.4391 C   0  0  0  0  0  0  0  0  0  0  0  0
    0.1496   -4.3733    4.3389 C   0  0  0  0  0  0  0  0  0  0  0  0
    0.9307   -5.3460    4.6804 O   0  0  0  0  0  0  0  0  0  0  0  0
    0.4497   -3.1611    4.8615 O   0  0  0  0  0  0  0  0  0  0  0  0
    1.5288   -2.8746    5.7583 C   0  0  0  0  0  0  0  0  0  0  0  0
    1.5045   -1.3764    5.9303 C   0  0  0  0  0  0  0  0  0  0  0  0
    0.1855   -0.9515    6.4787 C   0  0  0  0  0  0  0  0  0  0  0  0
    0.0985    0.5633    6.6352 C   0  0  0  0  0  0  0  0  0  0  0  0
    0.3029    1.2324    5.3206 C   0  0  0  0  0  0  0  0  0  0  0  0
   -0.6220    1.1656    4.4727 O   0  0  0  0  0  0  0  0  0  0  0  0
    1.4534    1.9217    4.9787 O   0  0  0  0  0  0  0  0  0  0  0  0
    8.8952    1.3531   -5.3461 H   0  0  0  0  0  0  0  0  0  0  0  0
    7.1902    0.4191   -4.2220 H   0  0  0  0  0  0  0  0  0  0  0  0
    6.8690    2.1396   -4.7467 H   0  0  0  0  0  0  0  0  0  0  0  0
    7.7891    1.2024   -1.9712 H   0  0  0  0  0  0  0  0  0  0  0  0
    7.4983    2.9454   -2.4552 H   0  0  0  0  0  0  0  0  0  0  0  0
    5.5915    1.8369   -1.1696 H   0  0  0  0  0  0  0  0  0  0  0  0
    5.5228    0.5940   -2.4699 H   0  0  0  0  0  0  0  0  0  0  0  0
    3.7299    2.1771   -2.8874 H   0  0  0  0  0  0  0  0  0  0  0  0
    4.9452    2.1715   -4.1554 H   0  0  0  0  0  0  0  0  0  0  0  0
    4.3363    4.3930   -3.8122 H   0  0  0  0  0  0  0  0  0  0  0  0
    6.0401    4.1532   -3.3940 H   0  0  0  0  0  0  0  0  0  0  0  0
    2.0934    5.2002    0.0587 H   0  0  0  0  0  0  0  0  0  0  0  0
    3.4043    6.3693    0.1205 H   0  0  0  0  0  0  0  0  0  0  0  0
    4.8189    4.6174    1.3388 H   0  0  0  0  0  0  0  0  0  0  0  0
    3.4365    3.5339    1.2309 H   0  0  0  0  0  0  0  0  0  0  0  0
    3.4031    6.4067    2.4206 H   0  0  0  0  0  0  0  0  0  0  0  0
    1.9998    5.3397    2.3667 H   0  0  0  0  0  0  0  0  0  0  0  0
    4.6279    4.9832    3.9283 H   0  0  0  0  0  0  0  0  0  0  0  0
    3.3636    3.7169    3.8904 H   0  0  0  0  0  0  0  0  0  0  0  0
    0.7102    7.5310    5.1604 H   0  0  0  0  0  0  0  0  0  0  0  0
    0.3472    6.0548    6.2375 H   0  0  0  0  0  0  0  0  0  0  0  0
   -0.6888    6.7193    3.4473 H   0  0  0  0  0  0  0  0  0  0  0  0
   -1.6310    6.7751    4.9852 H   0  0  0  0  0  0  0  0  0  0  0  0
   -0.1913    4.2543    3.9455 H   0  0  0  0  0  0  0  0  0  0  0  0
   -1.2476    4.3434    5.3561 H   0  0  0  0  0  0  0  0  0  0  0  0
   -2.2571    3.1456    3.5120 H   0  0  0  0  0  0  0  0  0  0  0  0
   -2.0191    4.5826    2.4162 H   0  0  0  0  0  0  0  0  0  0  0  0
   -4.3666    4.0525    3.1374 H   0  0  0  0  0  0  0  0  0  0  0  0
   -3.9644    4.4821    4.8227 H   0  0  0  0  0  0  0  0  0  0  0  0
   -4.6176    8.6406    3.7670 H   0  0  0  0  0  0  0  0  0  0  0  0
   -3.2377    9.2418    2.8299 H   0  0  0  0  0  0  0  0  0  0  0  0
   -5.6826    7.7086    1.8291 H   0  0  0  0  0  0  0  0  0  0  0  0
   -5.2784    9.4417    1.6547 H   0  0  0  0  0  0  0  0  0  0  0  0
   -3.3441    9.0463    0.3568 H   0  0  0  0  0  0  0  0  0  0  0  0
   -4.7314    8.3399   -0.4880 H   0  0  0  0  0  0  0  0  0  0  0  0
   -2.4617    6.9082    0.9707 H   0  0  0  0  0  0  0  0  0  0  0  0
   -2.7750    7.0373   -0.7537 H   0  0  0  0  0  0  0  0  0  0  0  0
   -4.7871    3.0853    0.8657 H   0  0  0  0  0  0  0  0  0  0  0  0
   -4.8881    3.3083   -0.9284 H   0  0  0  0  0  0  0  0  0  0  0  0
   -2.6238    2.1952   -1.1030 H   0  0  0  0  0  0  0  0  0  0  0  0
   -2.6342    2.0294    0.6759 H   0  0  0  0  0  0  0  0  0  0  0  0
   -4.8255    0.8625    0.5699 H   0  0  0  0  0  0  0  0  0  0  0  0
   -4.8994    1.0055   -1.1861 H   0  0  0  0  0  0  0  0  0  0  0  0
   -2.7343   -0.3755   -1.3366 H   0  0  0  0  0  0  0  0  0  0  0  0
   -2.8352   -0.5593    0.4357 H   0  0  0  0  0  0  0  0  0  0  0  0
   -5.0887   -1.5210    0.2930 H   0  0  0  0  0  0  0  0  0  0  0  0
   -5.1721   -1.2975   -1.4641 H   0  0  0  0  0  0  0  0  0  0  0  0
   -2.3163   -5.0144   -0.7754 H   0  0  0  0  0  0  0  0  0  0  0  0
   -3.7021   -5.4568   -1.8048 H   0  0  0  0  0  0  0  0  0  0  0  0
   -0.9630   -4.6236   -2.8648 H   0  0  0  0  0  0  0  0  0  0  0  0
   -2.4267   -4.8758   -3.8501 H   0  0  0  0  0  0  0  0  0  0  0  0
   -1.0221   -6.7804   -3.9322 H   0  0  0  0  0  0  0  0  0  0  0  0
   -2.6045   -7.1750   -3.2061 H   0  0  0  0  0  0  0  0  0  0  0  0
   -1.5949   -7.2020   -0.9484 H   0  0  0  0  0  0  0  0  0  0  0  0
   -0.9093   -8.4172   -2.0190 H   0  0  0  0  0  0  0  0  0  0  0  0
    2.3219   -5.5149   -0.4875 H   0  0  0  0  0  0  0  0  0  0  0  0
    2.8314   -4.6100   -1.8922 H   0  0  0  0  0  0  0  0  0  0  0  0
    4.4287   -6.5229   -1.3916 H   0  0  0  0  0  0  0  0  0  0  0  0
    3.0800   -7.6358   -1.2817 H   0  0  0  0  0  0  0  0  0  0  0  0
    4.2085   -8.0749   -3.3302 H   0  0  0  0  0  0  0  0  0  0  0  0
    2.6062   -7.4691   -3.7526 H   0  0  0  0  0  0  0  0  0  0  0  0
    4.3325   -6.8136   -5.2276 H   0  0  0  0  0  0  0  0  0  0  0  0
    5.2665   -6.0185   -3.9460 H   0  0  0  0  0  0  0  0  0  0  0  0
    4.2612   -4.4934   -5.4515 H   0  0  0  0  0  0  0  0  0  0  0  0
    3.7583   -4.1491   -3.7980 H   0  0  0  0  0  0  0  0  0  0  0  0
   -0.5343   -3.9886   -5.1307 H   0  0  0  0  0  0  0  0  0  0  0  0
    0.1496   -3.5621   -6.6949 H   0  0  0  0  0  0  0  0  0  0  0  0
   -0.9548   -1.6457   -5.7612 H   0  0  0  0  0  0  0  0  0  0  0  0
    0.7587   -1.3515   -6.0481 H   0  0  0  0  0  0  0  0  0  0  0  0
   -0.6440   -2.0854   -3.4038 H   0  0  0  0  0  0  0  0  0  0  0  0
   -0.1281   -0.4016   -3.8888 H   0  0  0  0  0  0  0  0  0  0  0  0
    2.2062   -1.0557   -3.7482 H   0  0  0  0  0  0  0  0  0  0  0  0
    1.7820   -2.7214   -3.1939 H   0  0  0  0  0  0  0  0  0  0  0  0
    0.1537   -1.1005    0.5956 H   0  0  0  0  0  0  0  0  0  0  0  0
    1.9817   -1.1405    0.7415 H   0  0  0  0  0  0  0  0  0  0  0  0
    0.7280   -2.3422    2.4569 H   0  0  0  0  0  0  0  0  0  0  0  0
    1.7996   -3.5037    1.5536 H   0  0  0  0  0  0  0  0  0  0  0  0
   -1.2480   -2.9699    1.1940 H   0  0  0  0  0  0  0  0  0  0  0  0
   -0.2719   -3.9536    0.1058 H   0  0  0  0  0  0  0  0  0  0  0  0
   -1.6483   -5.2531    1.5240 H   0  0  0  0  0  0  0  0  0  0  0  0
    0.0325   -5.6918    1.8239 H   0  0  0  0  0  0  0  0  0  0  0  0
   -1.7806   -3.9908    3.6533 H   0  0  0  0  0  0  0  0  0  0  0  0
   -1.4254   -5.7021    3.8359 H   0  0  0  0  0  0  0  0  0  0  0  0
    1.3883   -3.3993    6.7301 H   0  0  0  0  0  0  0  0  0  0  0  0
    2.4603   -3.1577    5.2394 H   0  0  0  0  0  0  0  0  0  0  0  0
    1.7240   -0.9512    4.9296 H   0  0  0  0  0  0  0  0  0  0  0  0
    2.3555   -1.0777    6.5747 H   0  0  0  0  0  0  0  0  0  0  0  0
    0.1118   -1.3433    7.5356 H   0  0  0  0  0  0  0  0  0  0  0  0
   -0.6411   -1.3853    5.9262 H   0  0  0  0  0  0  0  0  0  0  0  0
    0.7938    0.8592    7.4157 H   0  0  0  0  0  0  0  0  0  0  0  0
   -0.9283    0.7907    6.9719 H   0  0  0  0  0  0  0  0  0  0  0  0
    1.8989    1.7190    4.0708 H   0  0  0  0  0  0  0  0  0  0  0  0
  1  2  1  0
  2  3  1  0
  3  4  1  0
  4  5  1  0
  5  6  1  0
  6  7  1  0
  7  8  2  0
  7  9  1  0
  9 10  1  0
 10 11  1  0
 11 12  1  0
 12 13  1  0
 13 14  1  0
 14 15  2  0
 14 16  1  0
 16 17  1  0
 17 18  1  0
 18 19  1  0
 19 20  1  0
 20 21  1  0
 21 22  1  0
 22 23  2  0
 22 24  1  0
 24 25  1  0
 25 26  1  0
 26 27  1  0
 27 28  1  0
 28 29  1  0
 29 30  2  0
 29 31  1  0
 31 32  1  0
 32 33  1  0
 33 34  1  0
 34 35  1  0
 35 36  1  0
 36 37  1  0
 37 38  2  0
 37 39  1  0
 39 40  1  0
 40 41  1  0
 41 42  1  0
 42 43  1  0
 43 44  1  0
 44 45  2  0
 44 46  1  0
 46 47  1  0
 47 48  1  0
 48 49  1  0
 49 50  1  0
 50 51  1  0
 51 52  1  0
 52 53  2  0
 52 54  1  0
 54 55  1  0
 55 56  1  0
 56 57  1  0
 57 58  1  0
 58 59  1  0
 59 60  2  0
 59 61  1  0
 61 62  1  0
 62 63  1  0
 63 64  1  0
 64 65  1  0
 65 66  1  0
 66 67  1  0
 67 68  2  0
 67 69  1  0
 69 70  1  0
 70 71  1  0
 71 72  1  0
 72 73  1  0
 73 74  1  0
 74 75  2  0
 74 76  1  0
  1 77  1  0
  2 78  1  0
  2 79  1  0
  3 80  1  0
  3 81  1  0
  4 82  1  0
  4 83  1  0
  5 84  1  0
  5 85  1  0
  6 86  1  0
  6 87  1  0
 10 88  1  0
 10 89  1  0
 11 90  1  0
 11 91  1  0
 12 92  1  0
 12 93  1  0
 13 94  1  0
 13 95  1  0
 17 96  1  0
 17 97  1  0
 18 98  1  0
 18 99  1  0
 19100  1  0
 19101  1  0
 20102  1  0
 20103  1  0
 21104  1  0
 21105  1  0
 25106  1  0
 25107  1  0
 26108  1  0
 26109  1  0
 27110  1  0
 27111  1  0
 28112  1  0
 28113  1  0
 32114  1  0
 32115  1  0
 33116  1  0
 33117  1  0
 34118  1  0
 34119  1  0
 35120  1  0
 35121  1  0
 36122  1  0
 36123  1  0
 40124  1  0
 40125  1  0
 41126  1  0
 41127  1  0
 42128  1  0
 42129  1  0
 43130  1  0
 43131  1  0
 47132  1  0
 47133  1  0
 48134  1  0
 48135  1  0
 49136  1  0
 49137  1  0
 50138  1  0
 50139  1  0
 51140  1  0
 51141  1  0
 55142  1  0
 55143  1  0
 56144  1  0
 56145  1  0
 57146  1  0
 57147  1  0
 58148  1  0
 58149  1  0
 62150  1  0
 62151  1  0
 63152  1  0
 63153  1  0
 64154  1  0
 64155  1  0
 65156  1  0
 65157  1  0
 66158  1  0
 66159  1  0
 70160  1  0
 70161  1  0
 71162  1  0
 71163  1  0
 72164  1  0
 72165  1  0
 73166  1  0
 73167  1  0
 76168  1  0
M  END
$$$$
