
     RDKit          3D

 93 92  0  0  0  0  0  0  0  0999 V2000
    1.2801    7.1256   -0.7460 O   0  0  0  0  0  0  0  0  0  0  0  0
    1.9356    6.5746    0.3550 C   0  0  0  0  0  0  0  0  0  0  0  0
    3.0187    5.6069   -0.0440 C   0  0  0  0  0  0  0  0  0  0  0  0
    0.9471    5.8160    1.1952 C   0  0  0  0  0  0  0  0  0  0  0  0
   -0.2586    5.7788    0.8325 O   0  0  0  0  0  0  0  0  0  0  0  0
    1.4367    5.2012    2.3269 O   0  0  0  0  0  0  0  0  0  0  0  0
    0.6637    4.4603    3.2189 C   0  0  0  0  0  0  0  0  0  0  0  0
    0.6534    5.0611    4.5931 C   0  0  0  0  0  0  0  0  0  0  0  0
    1.0354    3.0144    3.2566 C   0  0  0  0  0  0  0  0  0  0  0  0
    1.9311    2.5456    2.5400 O   0  0  0  0  0  0  0  0  0  0  0  0
    0.3461    2.2103    4.1217 O   0  0  0  0  0  0  0  0  0  0  0  0
    0.5474    0.8319    4.3026 C   0  0  0  0  0  0  0  0  0  0  0  0
    1.0884    0.5471    5.7005 C   0  0  0  0  0  0  0  0  0  0  0  0
   -0.6920    0.0345    4.0864 C   0  0  0  0  0  0  0  0  0  0  0  0
   -0.6084   -1.2005    4.2779 O   0  0  0  0  0  0  0  0  0  0  0  0
   -1.8200    0.7074    3.6992 O   0  0  0  0  0  0  0  0  0  0  0  0
   -3.0886    0.1692    3.4498 C   0  0  0  0  0  0  0  0  0  0  0  0
   -4.0931    0.6917    4.4541 C   0  0  0  0  0  0  0  0  0  0  0  0
   -3.5314    0.3091    2.0600 C   0  0  0  0  0  0  0  0  0  0  0  0
   -4.7514    0.0085    1.8129 O   0  0  0  0  0  0  0  0  0  0  0  0
   -2.7793    0.7278    0.9983 O   0  0  0  0  0  0  0  0  0  0  0  0
   -3.1536    0.9007   -0.3175 C   0  0  0  0  0  0  0  0  0  0  0  0
   -3.0149    2.3301   -0.7771 C   0  0  0  0  0  0  0  0  0  0  0  0
   -2.5625   -0.0776   -1.2990 C   0  0  0  0  0  0  0  0  0  0  0  0
   -1.8932   -1.0734   -0.9316 O   0  0  0  0  0  0  0  0  0  0  0  0
   -2.7807    0.1614   -2.5889 O   0  0  0  0  0  0  0  0  0  0  0  0
   -2.5731   -0.2629   -3.8417 C   0  0  0  0  0  0  0  0  0  0  0  0
   -3.7102   -0.4330   -4.7778 C   0  0  0  0  0  0  0  0  0  0  0  0
   -1.4629    0.5494   -4.5368 C   0  0  0  0  0  0  0  0  0  0  0  0
   -1.3808    0.5867   -5.7693 O   0  0  0  0  0  0  0  0  0  0  0  0
   -0.6246    1.1835   -3.6804 O   0  0  0  0  0  0  0  0  0  0  0  0
    0.4629    2.0104   -3.8217 C   0  0  0  0  0  0  0  0  0  0  0  0
    0.4876    3.1094   -2.8434 C   0  0  0  0  0  0  0  0  0  0  0  0
    1.6995    1.1378   -3.5997 C   0  0  0  0  0  0  0  0  0  0  0  0
    2.7949    1.6710   -3.2734 O   0  0  0  0  0  0  0  0  0  0  0  0
    1.5893   -0.2610   -3.7798 O   0  0  0  0  0  0  0  0  0  0  0  0
    2.7328   -1.0482   -3.5860 C   0  0  0  0  0  0  0  0  0  0  0  0
    3.3641   -1.1967   -5.0549 C   0  0  0  0  0  0  0  0  0  0  0  0
    2.5775   -2.3897   -3.0749 C   0  0  0  0  0  0  0  0  0  0  0  0
    3.6555   -3.0444   -2.8119 O   0  0  0  0  0  0  0  0  0  0  0  0
    1.4072   -3.0915   -2.8320 O   0  0  0  0  0  0  0  0  0  0  0  0
    1.4418   -4.4228   -2.3614 C   0  0  0  0  0  0  0  0  0  0  0  0
    1.0417   -5.3309   -3.5503 C   0  0  0  0  0  0  0  0  0  0  0  0
    0.5809   -4.6591   -1.2250 C   0  0  0  0  0  0  0  0  0  0  0  0
    0.5475   -5.8718   -0.7771 O   0  0  0  0  0  0  0  0  0  0  0  0
   -0.2253   -3.7780   -0.5337 O   0  0  0  0  0  0  0  0  0  0  0  0
   -1.0147   -4.2299    0.5654 C   0  0  0  0  0  0  0  0  0  0  0  0
   -2.4813   -3.9568    0.3990 C   0  0  0  0  0  0  0  0  0  0  0  0
   -0.5086   -3.5535    1.7897 C   0  0  0  0  0  0  0  0  0  0  0  0
    0.4309   -2.7201    1.7848 O   0  0  0  0  0  0  0  0  0  0  0  0
   -1.1671   -3.9195    2.9854 O   0  0  0  0  0  0  0  0  0  0  0  0
    1.3549    6.4603   -1.4809 H   0  0  0  0  0  0  0  0  0  0  0  0
    2.3405    7.3727    1.0268 H   0  0  0  0  0  0  0  0  0  0  0  0
    4.0283    6.0492    0.0489 H   0  0  0  0  0  0  0  0  0  0  0  0
    2.8673    5.2872   -1.0952 H   0  0  0  0  0  0  0  0  0  0  0  0
    2.9916    4.6758    0.5683 H   0  0  0  0  0  0  0  0  0  0  0  0
   -0.3862    4.4736    2.8314 H   0  0  0  0  0  0  0  0  0  0  0  0
    0.5217    6.1707    4.4499 H   0  0  0  0  0  0  0  0  0  0  0  0
   -0.2143    4.6572    5.1428 H   0  0  0  0  0  0  0  0  0  0  0  0
    1.5688    4.8946    5.1684 H   0  0  0  0  0  0  0  0  0  0  0  0
    1.3485    0.5075    3.6123 H   0  0  0  0  0  0  0  0  0  0  0  0
    1.8316    1.3095    5.9966 H   0  0  0  0  0  0  0  0  0  0  0  0
    0.2058    0.5367    6.3751 H   0  0  0  0  0  0  0  0  0  0  0  0
    1.5422   -0.4575    5.6770 H   0  0  0  0  0  0  0  0  0  0  0  0
   -2.9956   -0.9448    3.6342 H   0  0  0  0  0  0  0  0  0  0  0  0
   -4.0424    1.7964    4.4608 H   0  0  0  0  0  0  0  0  0  0  0  0
   -5.1089    0.3761    4.1394 H   0  0  0  0  0  0  0  0  0  0  0  0
   -3.8084    0.2384    5.4301 H   0  0  0  0  0  0  0  0  0  0  0  0
   -4.2785    0.6829   -0.3290 H   0  0  0  0  0  0  0  0  0  0  0  0
   -3.9565    2.8790   -0.8746 H   0  0  0  0  0  0  0  0  0  0  0  0
   -2.3524    2.9199   -0.1061 H   0  0  0  0  0  0  0  0  0  0  0  0
   -2.5289    2.2794   -1.7794 H   0  0  0  0  0  0  0  0  0  0  0  0
   -2.0360   -1.2757   -3.7787 H   0  0  0  0  0  0  0  0  0  0  0  0
   -4.1858    0.5035   -5.0956 H   0  0  0  0  0  0  0  0  0  0  0  0
   -4.4287   -1.1906   -4.4174 H   0  0  0  0  0  0  0  0  0  0  0  0
   -3.2777   -0.8956   -5.7152 H   0  0  0  0  0  0  0  0  0  0  0  0
    0.5609    2.3195   -4.9113 H   0  0  0  0  0  0  0  0  0  0  0  0
    0.8414    2.7300   -1.8595 H   0  0  0  0  0  0  0  0  0  0  0  0
    1.1997    3.9333   -3.0991 H   0  0  0  0  0  0  0  0  0  0  0  0
   -0.5334    3.5329   -2.6131 H   0  0  0  0  0  0  0  0  0  0  0  0
    3.5252   -0.4626   -3.1212 H   0  0  0  0  0  0  0  0  0  0  0  0
    4.3650   -1.6008   -4.8430 H   0  0  0  0  0  0  0  0  0  0  0  0
    3.4634   -0.1561   -5.3995 H   0  0  0  0  0  0  0  0  0  0  0  0
    2.7255   -1.8464   -5.6425 H   0  0  0  0  0  0  0  0  0  0  0  0
    2.5126   -4.7287   -2.1834 H   0  0  0  0  0  0  0  0  0  0  0  0
    1.5647   -6.3099   -3.4785 H   0  0  0  0  0  0  0  0  0  0  0  0
   -0.0467   -5.4930   -3.4912 H   0  0  0  0  0  0  0  0  0  0  0  0
    1.2838   -4.8308   -4.5078 H   0  0  0  0  0  0  0  0  0  0  0  0
   -0.8776   -5.3366    0.7103 H   0  0  0  0  0  0  0  0  0  0  0  0
   -2.7836   -4.0240   -0.6856 H   0  0  0  0  0  0  0  0  0  0  0  0
   -2.8034   -2.9933    0.8549 H   0  0  0  0  0  0  0  0  0  0  0  0
   -3.0421   -4.7592    0.9353 H   0  0  0  0  0  0  0  0  0  0  0  0
   -0.6176   -3.9042    3.8589 H   0  0  0  0  0  0  0  0  0  0  0  0
  1  2  1  0
  2  3  1  0
  2  4  1  0
  4  5  2  0
  4  6  1  0
  6  7  1  0
  7  8  1  0
  7  9  1  0
  9 10  2  0
  9 11  1  0
 11 12  1  0
 12 13  1  0
 12 14  1  0
 14 15  2  0
 14 16  1  0
 16 17  1  0
 17 18  1  0
 17 19  1  0
 19 20  2  0
 19 21  1  0
 21 22  1  0
 22 23  1  0
 22 24  1  0
 24 25  2  0
 24 26  1  0
 26 27  1  0
 27 28  1  0
 27 29  1  0
 29 30  2  0
 29 31  1  0
 31 32  1  0
 32 33  1  0
 32 34  1  0
 34 35  2  0
 34 36  1  0
 36 37  1  0
 37 38  1  0
 37 39  1  0
 39 40  2  0
 39 41  1  0
 41 42  1  0
 42 43  1  0
 42 44  1  0
 44 45  2  0
 44 46  1  0
 46 47  1  0
 47 48  1  0
 47 49  1  0
 49 50  2  0
 49 51  1  0
  1 52  1  0
  2 53  1  0
  3 54  1  0
  3 55  1  0
  3 56  1  0
  7 57  1  0
  8 58  1  0
  8 59  1  0
  8 60  1  0
 12 61  1  0
 13 62  1  0
 13 63  1  0
 13 64  1  0
 17 65  1  0
 18 66  1  0
 18 67  1  0
 18 68  1  0
 22 69  1  0
 23 70  1  0
 23 71  1  0
 23 72  1  0
 27 73  1  0
 28 74  1  0
 28 75  1  0
 28 76  1  0
 32 77  1  0
 33 78  1  0
 33 79  1  0
 33 80  1  0
 37 81  1  0
 38 82  1  0
 38 83  1  0
 38 84  1  0
 42 85  1  0
 43 86  1  0
 43 87  1  0
 43 88  1  0
 47 89  1  0
 48 90  1  0
 48 91  1  0
 48 92  1  0
 51 93  1  0
M  END
$$$$
