
     RDKit          3D

 30 29  0  0  0  0  0  0  0  0999 V2000
   -6.8172    0.7006    1.7874 H   0  0  0  0  0  0  0  0  0  0  0  0
   -6.4267   -0.3143    1.5662 C   0  0  0  0  0  0  0  0  0  0  0  0
   -7.5872   -1.2585    1.3167 C   0  0  0  0  0  0  0  0  0  0  0  0
   -7.0745   -2.6464    0.9678 C   0  0  0  0  0  0  0  0  0  0  0  0
   -6.5113   -2.6900   -0.4469 C   0  0  0  0  0  0  0  0  0  0  0  0
   -7.5951   -3.0277   -1.4649 C   0  0  0  0  0  0  0  0  0  0  0  0
   -8.4786   -1.8303   -1.7949 C   0  0  0  0  0  0  0  0  0  0  0  0
   -7.7319   -0.8239   -2.6540 C   0  0  0  0  0  0  0  0  0  0  0  0
   -7.1325    0.2584   -1.7739 C   0  0  0  0  0  0  0  0  0  0  0  0
   -6.1385    1.1007   -2.5577 C   0  0  0  0  0  0  0  0  0  0  0  0
   -4.8457    0.3346   -2.8180 C   0  0  0  0  0  0  0  0  0  0  0  0
   -4.0835    0.0663   -1.5283 C   0  0  0  0  0  0  0  0  0  0  0  0
   -3.4635    1.3476   -0.9963 C   0  0  0  0  0  0  0  0  0  0  0  0
   -2.7270    1.0774    0.3071 C   0  0  0  0  0  0  0  0  0  0  0  0
   -1.4263    0.3273    0.0632 C   0  0  0  0  0  0  0  0  0  0  0  0
   -0.3835    1.2560   -0.5363 C   0  0  0  0  0  0  0  0  0  0  0  0
    0.9114    0.5024   -0.7975 C   0  0  0  0  0  0  0  0  0  0  0  0
    1.6552    0.2077    0.4995 C   0  0  0  0  0  0  0  0  0  0  0  0
    2.2726    1.4716    1.0867 C   0  0  0  0  0  0  0  0  0  0  0  0
    3.4704    1.9352    0.2719 C   0  0  0  0  0  0  0  0  0  0  0  0
    4.6620    1.0232    0.5132 C   0  0  0  0  0  0  0  0  0  0  0  0
    5.8625    1.4957   -0.2923 C   0  0  0  0  0  0  0  0  0  0  0  0
    6.4831    2.7453    0.3205 C   0  0  0  0  0  0  0  0  0  0  0  0
    7.2282    2.4272    1.6111 C   0  0  0  0  0  0  0  0  0  0  0  0
    8.6276    1.9043    1.3265 C   0  0  0  0  0  0  0  0  0  0  0  0
    8.5916    0.4226    1.0060 C   0  0  0  0  0  0  0  0  0  0  0  0
    9.9977   -0.0673    0.7202 C   0  0  0  0  0  0  0  0  0  0  0  0
    9.9915   -1.5532    0.3989 C   0  0  0  0  0  0  0  0  0  0  0  0
    9.9732   -2.3901    1.6684 C   0  0  0  0  0  0  0  0  0  0  0  0
    8.6959   -2.3857    2.2299 O   0  0  0  0  0  0  0  0  0  0  0  0
  1  2  1  0
  2  3  1  0
  3  4  1  0
  4  5  1  0
  5  6  1  0
  6  7  1  0
  7  8  1  0
  8  9  1  0
  9 10  1  0
 10 11  1  0
 11 12  1  0
 12 13  1  0
 13 14  1  0
 14 15  1  0
 15 16  1  0
 16 17  1  0
 17 18  1  0
 18 19  1  0
 19 20  1  0
 20 21  1  0
 21 22  1  0
 22 23  1  0
 23 24  1  0
 24 25  1  0
 25 26  1  0
 26 27  1  0
 27 28  1  0
 28 29  1  0
 29 30  1  0
M  END
