
     RDKit          3D

 47 46  0  0  0  0  0  0  0  0999 V2000
   13.2245   -1.0464   -2.1631 O   0  0  0  0  0  0  0  0  0  0  0  0
   12.9170   -2.3830   -1.9012 C   0  0  0  0  0  0  0  0  0  0  0  0
   11.8253   -2.4656   -0.8787 C   0  0  0  0  0  0  0  0  0  0  0  0
   10.5585   -2.0956   -1.1151 C   0  0  0  0  0  0  0  0  0  0  0  0
   10.1214   -1.6060   -2.4561 C   0  0  0  0  0  0  0  0  0  0  0  0
    9.5280   -2.2463   -0.0401 C   0  0  0  0  0  0  0  0  0  0  0  0
    9.8269   -1.3658    1.1723 C   0  0  0  0  0  0  0  0  0  0  0  0
    9.6521    0.0965    0.8643 C   0  0  0  0  0  0  0  0  0  0  0  0
    8.4606    0.6852    0.6884 C   0  0  0  0  0  0  0  0  0  0  0  0
    8.4185    2.1520    0.4108 C   0  0  0  0  0  0  0  0  0  0  0  0
    7.1754   -0.0823    0.7788 C   0  0  0  0  0  0  0  0  0  0  0  0
    6.4587   -0.0689   -0.5596 C   0  0  0  0  0  0  0  0  0  0  0  0
    5.1906   -0.8625   -0.4876 C   0  0  0  0  0  0  0  0  0  0  0  0
    4.0955   -0.4461    0.1686 C   0  0  0  0  0  0  0  0  0  0  0  0
    4.0704    0.8569    0.9107 C   0  0  0  0  0  0  0  0  0  0  0  0
    2.8654   -1.3014    0.1755 C   0  0  0  0  0  0  0  0  0  0  0  0
    2.1806   -1.3221   -1.1843 C   0  0  0  0  0  0  0  0  0  0  0  0
    1.4157   -0.0526   -1.4085 C   0  0  0  0  0  0  0  0  0  0  0  0
    1.8708    0.9606   -2.1493 C   0  0  0  0  0  0  0  0  0  0  0  0
    3.1950    0.8966   -2.8481 C   0  0  0  0  0  0  0  0  0  0  0  0
    1.0419    2.2020   -2.2635 C   0  0  0  0  0  0  0  0  0  0  0  0
    1.7011    3.3789   -1.5512 C   0  0  0  0  0  0  0  0  0  0  0  0
    1.7209    3.1848   -0.0651 C   0  0  0  0  0  0  0  0  0  0  0  0
    0.6522    3.3311    0.7248 C   0  0  0  0  0  0  0  0  0  0  0  0
    0.8360    3.0750    2.1868 C   0  0  0  0  0  0  0  0  0  0  0  0
   -0.6843    3.7381    0.1542 C   0  0  0  0  0  0  0  0  0  0  0  0
   -1.7612    4.0168    1.2004 C   0  0  0  0  0  0  0  0  0  0  0  0
   -2.3330    2.7479    1.7666 C   0  0  0  0  0  0  0  0  0  0  0  0
   -3.1142    1.9016    1.0853 C   0  0  0  0  0  0  0  0  0  0  0  0
   -3.4845    2.1697   -0.3509 C   0  0  0  0  0  0  0  0  0  0  0  0
   -3.6200    0.6841    1.8149 C   0  0  0  0  0  0  0  0  0  0  0  0
   -4.6403   -0.1442    1.0341 C   0  0  0  0  0  0  0  0  0  0  0  0
   -5.9519    0.5768    0.8963 C   0  0  0  0  0  0  0  0  0  0  0  0
   -6.7927    0.8254    1.9123 C   0  0  0  0  0  0  0  0  0  0  0  0
   -6.4975    0.3795    3.3084 C   0  0  0  0  0  0  0  0  0  0  0  0
   -8.0644    1.5653    1.6425 C   0  0  0  0  0  0  0  0  0  0  0  0
   -9.0586    0.6784    0.9089 C   0  0  0  0  0  0  0  0  0  0  0  0
   -9.8038   -0.1768    1.8864 C   0  0  0  0  0  0  0  0  0  0  0  0
  -10.5530   -1.2223    1.5196 C   0  0  0  0  0  0  0  0  0  0  0  0
  -11.2805   -1.9897    2.5700 C   0  0  0  0  0  0  0  0  0  0  0  0
  -10.6798   -1.6410    0.0852 C   0  0  0  0  0  0  0  0  0  0  0  0
   -9.9430   -2.9462   -0.1786 C   0  0  0  0  0  0  0  0  0  0  0  0
   -8.4638   -2.7166   -0.3093 C   0  0  0  0  0  0  0  0  0  0  0  0
   -7.8775   -2.2321   -1.4111 C   0  0  0  0  0  0  0  0  0  0  0  0
   -6.3998   -2.0636   -1.4253 C   0  0  0  0  0  0  0  0  0  0  0  0
   -8.6452   -1.9071   -2.6534 C   0  0  0  0  0  0  0  0  0  0  0  0
   -9.3538   -1.0736   -2.4660 H   0  0  0  0  0  0  0  0  0  0  0  0
  1  2  1  0
  2  3  1  0
  3  4  2  3
  4  5  1  0
  4  6  1  0
  6  7  1  0
  7  8  1  0
  8  9  2  3
  9 10  1  0
  9 11  1  0
 11 12  1  0
 12 13  1  0
 13 14  2  3
 14 15  1  0
 14 16  1  0
 16 17  1  0
 17 18  1  0
 18 19  2  3
 19 20  1  0
 19 21  1  0
 21 22  1  0
 22 23  1  0
 23 24  2  3
 24 25  1  0
 24 26  1  0
 26 27  1  0
 27 28  1  0
 28 29  2  3
 29 30  1  0
 29 31  1  0
 31 32  1  0
 32 33  1  0
 33 34  2  3
 34 35  1  0
 34 36  1  0
 36 37  1  0
 37 38  1  0
 38 39  2  3
 39 40  1  0
 39 41  1  0
 41 42  1  0
 42 43  1  0
 43 44  2  3
 44 45  1  0
 44 46  1  0
 46 47  1  0
M  END
