
     RDKit          3D

 62 63  0  0  0  0  0  0  0  0999 V2000
   15.7722   -1.1163    6.2701 O   0  0  0  0  0  0  0  0  0  0  0  0
   15.2013   -0.0163    5.6428 C   0  0  0  0  0  0  0  0  0  0  0  0
   15.3613    1.1279    6.1417 O   0  0  0  0  0  0  0  0  0  0  0  0
   14.3917   -0.1953    4.4228 C   0  0  0  0  0  0  0  0  0  0  0  0
   13.9600    0.9146    3.6857 C   0  0  0  0  0  0  0  0  0  0  0  0
   13.2024    0.7391    2.5255 C   0  0  0  0  0  0  0  0  0  0  0  0
   12.8585   -0.5501    2.0922 C   0  0  0  0  0  0  0  0  0  0  0  0
   13.2887   -1.6608    2.8340 C   0  0  0  0  0  0  0  0  0  0  0  0
   14.0514   -1.4850    3.9916 C   0  0  0  0  0  0  0  0  0  0  0  0
   12.0583   -0.7348    0.8756 C   0  0  0  0  0  0  0  0  0  0  0  0
   11.7112   -1.8958    0.5219 O   0  0  0  0  0  0  0  0  0  0  0  0
   11.6838    0.3767    0.1160 O   0  0  0  0  0  0  0  0  0  0  0  0
   10.7783    0.2842   -0.9744 C   0  0  0  0  0  0  0  0  0  0  0  0
   10.6808    1.6208   -1.7022 C   0  0  0  0  0  0  0  0  0  0  0  0
   10.3601    2.7749   -0.7579 C   0  0  0  0  0  0  0  0  0  0  0  0
    8.9380    2.6975   -0.2264 C   0  0  0  0  0  0  0  0  0  0  0  0
    8.8527    1.7222    0.8058 O   0  0  0  0  0  0  0  0  0  0  0  0
    7.6897    1.5359    1.5525 C   0  0  0  0  0  0  0  0  0  0  0  0
    6.6970    2.3006    1.4002 O   0  0  0  0  0  0  0  0  0  0  0  0
    7.5888    0.3982    2.5164 C   0  0  0  0  0  0  0  0  0  0  0  0
    7.6380   -0.9512    1.8052 C   0  0  0  0  0  0  0  0  0  0  0  0
    6.4522   -1.1215    0.8678 C   0  0  0  0  0  0  0  0  0  0  0  0
    6.9001   -0.8593   -0.5659 C   0  0  0  0  0  0  0  0  0  0  0  0
    5.7744   -0.2858   -1.3548 C   0  0  0  0  0  0  0  0  0  0  0  0
    5.4944    0.9384   -1.2330 O   0  0  0  0  0  0  0  0  0  0  0  0
    5.0307   -1.1054   -2.2127 O   0  0  0  0  0  0  0  0  0  0  0  0
    4.0194   -0.5612   -3.0490 C   0  0  0  0  0  0  0  0  0  0  0  0
    3.3301   -1.6759   -3.8174 C   0  0  0  0  0  0  0  0  0  0  0  0
    2.9200   -1.2136   -5.2108 C   0  0  0  0  0  0  0  0  0  0  0  0
    1.8792   -0.1031   -5.1782 C   0  0  0  0  0  0  0  0  0  0  0  0
    0.6427   -0.5956   -4.6795 O   0  0  0  0  0  0  0  0  0  0  0  0
    0.1408   -0.1981   -3.4358 C   0  0  0  0  0  0  0  0  0  0  0  0
    0.8209    0.5580   -2.6884 O   0  0  0  0  0  0  0  0  0  0  0  0
   -1.2023   -0.6266   -3.0140 C   0  0  0  0  0  0  0  0  0  0  0  0
   -1.7443   -0.1628   -1.8072 C   0  0  0  0  0  0  0  0  0  0  0  0
   -3.0413   -0.5179   -1.4334 C   0  0  0  0  0  0  0  0  0  0  0  0
   -3.8188   -1.3351   -2.2685 C   0  0  0  0  0  0  0  0  0  0  0  0
   -3.2725   -1.8141   -3.4646 C   0  0  0  0  0  0  0  0  0  0  0  0
   -1.9757   -1.4533   -3.8434 C   0  0  0  0  0  0  0  0  0  0  0  0
   -5.1963   -1.6902   -1.8855 C   0  0  0  0  0  0  0  0  0  0  0  0
   -5.7212   -1.1547   -0.8722 O   0  0  0  0  0  0  0  0  0  0  0  0
   -5.9381   -2.5626   -2.6917 O   0  0  0  0  0  0  0  0  0  0  0  0
   -7.2638   -2.9521   -2.3581 C   0  0  0  0  0  0  0  0  0  0  0  0
   -8.2430   -1.8658   -2.7709 C   0  0  0  0  0  0  0  0  0  0  0  0
   -9.6437   -2.2392   -2.3223 C   0  0  0  0  0  0  0  0  0  0  0  0
   -9.8544   -1.8895   -0.8597 C   0  0  0  0  0  0  0  0  0  0  0  0
  -10.0607   -0.4913   -0.7247 O   0  0  0  0  0  0  0  0  0  0  0  0
  -10.3465    0.0970    0.5097 C   0  0  0  0  0  0  0  0  0  0  0  0
  -10.3972   -0.6057    1.5557 O   0  0  0  0  0  0  0  0  0  0  0  0
  -10.6937    1.5539    0.5461 C   0  0  0  0  0  0  0  0  0  0  0  0
  -10.3107    2.2324    1.8614 C   0  0  0  0  0  0  0  0  0  0  0  0
  -11.2366    1.8390    3.0110 C   0  0  0  0  0  0  0  0  0  0  0  0
  -12.6473    2.3951    2.8338 C   0  0  0  0  0  0  0  0  0  0  0  0
  -13.5019    1.4357    2.0753 C   0  0  0  0  0  0  0  0  0  0  0  0
  -13.8669    0.3576    2.6153 O   0  0  0  0  0  0  0  0  0  0  0  0
  -13.8283    1.7153    0.7428 O   0  0  0  0  0  0  0  0  0  0  0  0
  -14.5175    0.7892   -0.0879 C   0  0  0  0  0  0  0  0  0  0  0  0
  -15.9918    0.7264    0.2773 C   0  0  0  0  0  0  0  0  0  0  0  0
  -16.6880    2.0181   -0.1107 C   0  0  0  0  0  0  0  0  0  0  0  0
  -18.1759    1.9202    0.1768 C   0  0  0  0  0  0  0  0  0  0  0  0
  -18.4046    1.9126    1.5543 O   0  0  0  0  0  0  0  0  0  0  0  0
  -18.5862    0.9630    1.7740 H   0  0  0  0  0  0  0  0  0  0  0  0
  1  2  1  0
  2  3  2  0
  2  4  1  0
  4  5  2  0
  4  9  1  0
  5  6  1  0
  6  7  2  0
  7  8  1  0
  7 10  1  0
  8  9  2  0
 10 11  2  0
 10 12  1  0
 12 13  1  0
 13 14  1  0
 14 15  1  0
 15 16  1  0
 16 17  1  0
 17 18  1  0
 18 19  2  0
 18 20  1  0
 20 21  1  0
 21 22  1  0
 22 23  1  0
 23 24  1  0
 24 25  2  0
 24 26  1  0
 26 27  1  0
 27 28  1  0
 28 29  1  0
 29 30  1  0
 30 31  1  0
 31 32  1  0
 32 33  2  0
 32 34  1  0
 34 35  2  0
 34 39  1  0
 35 36  1  0
 36 37  2  0
 37 38  1  0
 37 40  1  0
 38 39  2  0
 40 41  2  0
 40 42  1  0
 42 43  1  0
 43 44  1  0
 44 45  1  0
 45 46  1  0
 46 47  1  0
 47 48  1  0
 48 49  2  0
 48 50  1  0
 50 51  1  0
 51 52  1  0
 52 53  1  0
 53 54  1  0
 54 55  2  0
 54 56  1  0
 56 57  1  0
 57 58  1  0
 58 59  1  0
 59 60  1  0
 60 61  1  0
 61 62  1  0
M  END
