
     RDKit          3D

 50 49  0  0  0  0  0  0  0  0999 V2000
  -15.3161    0.6862    5.3729 O   0  0  0  0  0  0  0  0  0  0  0  0
  -14.3930    1.2867    4.6506 O   0  0  0  0  0  0  0  0  0  0  0  0
  -13.9447    0.3032    3.7680 C   0  0  0  0  0  0  0  0  0  0  0  0
  -13.0227    0.9183    2.7271 C   0  0  0  0  0  0  0  0  0  0  0  0
  -11.7155    1.3862    3.3530 C   0  0  0  0  0  0  0  0  0  0  0  0
  -10.8266    0.2060    3.7206 C   0  0  0  0  0  0  0  0  0  0  0  0
  -10.4269   -0.5065    2.5577 O   0  0  0  0  0  0  0  0  0  0  0  0
   -9.4245   -0.0407    1.7016 C   0  0  0  0  0  0  0  0  0  0  0  0
   -8.8369    1.0521    1.9259 O   0  0  0  0  0  0  0  0  0  0  0  0
   -9.0564   -0.8405    0.4981 C   0  0  0  0  0  0  0  0  0  0  0  0
  -10.1393   -0.7467   -0.5672 C   0  0  0  0  0  0  0  0  0  0  0  0
  -10.0776    0.5611   -1.2813 C   0  0  0  0  0  0  0  0  0  0  0  0
  -11.0577    1.3496   -1.2199 O   0  0  0  0  0  0  0  0  0  0  0  0
   -8.9356    0.8946   -2.0101 O   0  0  0  0  0  0  0  0  0  0  0  0
   -8.8603    2.0777   -2.7907 C   0  0  0  0  0  0  0  0  0  0  0  0
   -7.4836    2.1907   -3.4124 C   0  0  0  0  0  0  0  0  0  0  0  0
   -6.4910    2.6879   -2.3797 C   0  0  0  0  0  0  0  0  0  0  0  0
   -5.0812    2.5982   -2.9353 C   0  0  0  0  0  0  0  0  0  0  0  0
   -4.6134    1.2559   -2.8758 O   0  0  0  0  0  0  0  0  0  0  0  0
   -4.1499    0.6839   -1.6895 C   0  0  0  0  0  0  0  0  0  0  0  0
   -4.0657    1.3678   -0.6343 O   0  0  0  0  0  0  0  0  0  0  0  0
   -3.7049   -0.7390   -1.6771 C   0  0  0  0  0  0  0  0  0  0  0  0
   -2.3346   -0.8940   -2.3225 C   0  0  0  0  0  0  0  0  0  0  0  0
   -1.2679   -0.2791   -1.4800 C   0  0  0  0  0  0  0  0  0  0  0  0
   -0.8165   -0.9065   -0.4857 O   0  0  0  0  0  0  0  0  0  0  0  0
   -0.8087    1.0038   -1.7875 O   0  0  0  0  0  0  0  0  0  0  0  0
    0.1604    1.6823   -0.9949 C   0  0  0  0  0  0  0  0  0  0  0  0
    1.5429    1.0834   -1.1962 C   0  0  0  0  0  0  0  0  0  0  0  0
    2.0449    1.3782   -2.5957 C   0  0  0  0  0  0  0  0  0  0  0  0
    3.4742    0.8827   -2.7589 C   0  0  0  0  0  0  0  0  0  0  0  0
    4.3898    1.8271   -2.2123 O   0  0  0  0  0  0  0  0  0  0  0  0
    4.7924    1.7981   -0.8760 C   0  0  0  0  0  0  0  0  0  0  0  0
    4.4343    0.8612   -0.1112 O   0  0  0  0  0  0  0  0  0  0  0  0
    5.6790    2.8766   -0.3528 C   0  0  0  0  0  0  0  0  0  0  0  0
    7.1448    2.5582   -0.6135 C   0  0  0  0  0  0  0  0  0  0  0  0
    7.6314    1.4710    0.2857 C   0  0  0  0  0  0  0  0  0  0  0  0
    7.6400    1.6456    1.5350 O   0  0  0  0  0  0  0  0  0  0  0  0
    8.0802    0.2738   -0.2708 O   0  0  0  0  0  0  0  0  0  0  0  0
    8.4936   -0.8184    0.5384 C   0  0  0  0  0  0  0  0  0  0  0  0
    9.1334   -1.8915   -0.3252 C   0  0  0  0  0  0  0  0  0  0  0  0
   10.4905   -1.4363   -0.8418 C   0  0  0  0  0  0  0  0  0  0  0  0
   11.5113   -1.3941    0.2830 C   0  0  0  0  0  0  0  0  0  0  0  0
   11.8418   -2.7153    0.6872 O   0  0  0  0  0  0  0  0  0  0  0  0
   12.5857   -2.9661    1.8398 C   0  0  0  0  0  0  0  0  0  0  0  0
   12.9290   -2.0241    2.6054 O   0  0  0  0  0  0  0  0  0  0  0  0
   12.9606   -4.3706    2.1750 C   0  0  0  0  0  0  0  0  0  0  0  0
   14.4752   -4.5554    2.1638 C   0  0  0  0  0  0  0  0  0  0  0  0
   15.0147   -4.5436    0.7676 C   0  0  0  0  0  0  0  0  0  0  0  0
   14.7049   -5.4223   -0.0209 O   0  0  0  0  0  0  0  0  0  0  0  0
   15.6963   -3.7573    0.4624 H   0  0  0  0  0  0  0  0  0  0  0  0
  1  2  1  0
  2  3  1  0
  3  4  1  0
  4  5  1  0
  5  6  1  0
  6  7  1  0
  7  8  1  0
  8  9  2  0
  8 10  1  0
 10 11  1  0
 11 12  1  0
 12 13  2  0
 12 14  1  0
 14 15  1  0
 15 16  1  0
 16 17  1  0
 17 18  1  0
 18 19  1  0
 19 20  1  0
 20 21  2  0
 20 22  1  0
 22 23  1  0
 23 24  1  0
 24 25  2  0
 24 26  1  0
 26 27  1  0
 27 28  1  0
 28 29  1  0
 29 30  1  0
 30 31  1  0
 31 32  1  0
 32 33  2  0
 32 34  1  0
 34 35  1  0
 35 36  1  0
 36 37  2  0
 36 38  1  0
 38 39  1  0
 39 40  1  0
 40 41  1  0
 41 42  1  0
 42 43  1  0
 43 44  1  0
 44 45  2  0
 44 46  1  0
 46 47  1  0
 47 48  1  0
 48 49  2  0
 48 50  1  0
M  END
