
     RDKit          3D

 52 51  0  0  0  0  0  0  0  0999 V2000
  -17.9004    5.1809   -0.9689 H   0  0  0  0  0  0  0  0  0  0  0  0
  -17.0548    5.3053   -0.4685 O   0  0  0  0  0  0  0  0  0  0  0  0
  -16.3853    4.0911   -0.6113 C   0  0  0  0  0  0  0  0  0  0  0  0
  -14.9720    4.2304   -0.0868 C   0  0  0  0  0  0  0  0  0  0  0  0
  -14.2473    2.9106   -0.2415 C   0  0  0  0  0  0  0  0  0  0  0  0
  -12.8369    3.0429    0.2913 C   0  0  0  0  0  0  0  0  0  0  0  0
  -12.1526    1.8119    0.1230 O   0  0  0  0  0  0  0  0  0  0  0  0
  -10.8287    1.6424    0.5266 C   0  0  0  0  0  0  0  0  0  0  0  0
  -10.1903    2.5866    1.0631 O   0  0  0  0  0  0  0  0  0  0  0  0
  -10.1534    0.3386    0.2932 C   0  0  0  0  0  0  0  0  0  0  0  0
   -9.7035    0.2432   -1.1521 C   0  0  0  0  0  0  0  0  0  0  0  0
   -9.0752   -1.0835   -1.3962 C   0  0  0  0  0  0  0  0  0  0  0  0
   -9.7759   -2.0333   -1.8399 O   0  0  0  0  0  0  0  0  0  0  0  0
   -7.7243   -1.2679   -1.1016 O   0  0  0  0  0  0  0  0  0  0  0  0
   -7.0789   -2.5202   -1.2908 C   0  0  0  0  0  0  0  0  0  0  0  0
   -5.6261   -2.4196   -0.8662 C   0  0  0  0  0  0  0  0  0  0  0  0
   -4.8395   -1.5996   -1.8738 C   0  0  0  0  0  0  0  0  0  0  0  0
   -3.4211   -1.3935   -1.3808 C   0  0  0  0  0  0  0  0  0  0  0  0
   -3.4210   -0.4868   -0.2882 O   0  0  0  0  0  0  0  0  0  0  0  0
   -2.2628   -0.1968    0.4324 C   0  0  0  0  0  0  0  0  0  0  0  0
   -1.1694   -0.7569    0.1515 O   0  0  0  0  0  0  0  0  0  0  0  0
   -2.3277    0.7841    1.5503 C   0  0  0  0  0  0  0  0  0  0  0  0
   -1.7980    2.1424    1.1130 C   0  0  0  0  0  0  0  0  0  0  0  0
   -0.2798    2.1868    1.1790 C   0  0  0  0  0  0  0  0  0  0  0  0
    0.1782    2.2308    2.6264 C   0  0  0  0  0  0  0  0  0  0  0  0
    1.6930    2.3055    2.7054 C   0  0  0  0  0  0  0  0  0  0  0  0
    2.2664    1.1127    2.2585 O   0  0  0  0  0  0  0  0  0  0  0  0
    2.7465    0.4929    3.4131 C   0  0  0  0  0  0  0  0  0  0  0  0
    4.1316   -0.0643    3.1586 C   0  0  0  0  0  0  0  0  0  0  0  0
    4.5911   -0.8266    4.3850 C   0  0  0  0  0  0  0  0  0  0  0  0
    5.9930   -1.3718    4.1853 C   0  0  0  0  0  0  0  0  0  0  0  0
    5.9941   -2.3654    3.1694 O   0  0  0  0  0  0  0  0  0  0  0  0
    7.1006   -3.1838    2.9455 C   0  0  0  0  0  0  0  0  0  0  0  0
    8.1105   -3.1220    3.7017 O   0  0  0  0  0  0  0  0  0  0  0  0
    7.0617   -4.1742    1.8276 C   0  0  0  0  0  0  0  0  0  0  0  0
    8.3249   -4.1190    0.9760 C   0  0  0  0  0  0  0  0  0  0  0  0
    8.3890   -2.8556    0.1869 C   0  0  0  0  0  0  0  0  0  0  0  0
    9.2495   -1.9851    0.4832 O   0  0  0  0  0  0  0  0  0  0  0  0
    7.4880   -2.6449   -0.8573 O   0  0  0  0  0  0  0  0  0  0  0  0
    7.5023   -1.4528   -1.6274 C   0  0  0  0  0  0  0  0  0  0  0  0
    6.3789   -1.4887   -2.6428 C   0  0  0  0  0  0  0  0  0  0  0  0
    6.4114   -0.2369   -3.5025 C   0  0  0  0  0  0  0  0  0  0  0  0
    7.3033   -0.4337   -4.7226 C   0  0  0  0  0  0  0  0  0  0  0  0
    8.6700   -0.5486   -4.3432 O   0  0  0  0  0  0  0  0  0  0  0  0
    9.4387    0.5523   -3.9579 C   0  0  0  0  0  0  0  0  0  0  0  0
    8.9498    1.7142   -3.9547 O   0  0  0  0  0  0  0  0  0  0  0  0
   10.8469    0.3422   -3.5184 C   0  0  0  0  0  0  0  0  0  0  0  0
   10.8936   -0.0212   -2.0436 C   0  0  0  0  0  0  0  0  0  0  0  0
   10.7764    1.2297   -1.1852 C   0  0  0  0  0  0  0  0  0  0  0  0
   10.7110    0.8620    0.2865 C   0  0  0  0  0  0  0  0  0  0  0  0
   12.0656    0.3831    0.7790 C   0  0  0  0  0  0  0  0  0  0  0  0
   11.9587   -0.0083    2.1109 O   0  0  0  0  0  0  0  0  0  0  0  0
  1  2  1  0
  2  3  1  0
  3  4  1  0
  4  5  1  0
  5  6  1  0
  6  7  1  0
  7  8  1  0
  8  9  2  0
  8 10  1  0
 10 11  1  0
 11 12  1  0
 12 13  2  0
 12 14  1  0
 14 15  1  0
 15 16  1  0
 16 17  1  0
 17 18  1  0
 18 19  1  0
 19 20  1  0
 20 21  2  0
 20 22  1  0
 22 23  1  0
 23 24  1  0
 24 25  1  0
 25 26  1  0
 26 27  1  0
 27 28  1  0
 28 29  1  0
 29 30  1  0
 30 31  1  0
 31 32  1  0
 32 33  1  0
 33 34  2  0
 33 35  1  0
 35 36  1  0
 36 37  1  0
 37 38  2  0
 37 39  1  0
 39 40  1  0
 40 41  1  0
 41 42  1  0
 42 43  1  0
 43 44  1  0
 44 45  1  0
 45 46  2  0
 45 47  1  0
 47 48  1  0
 48 49  1  0
 49 50  1  0
 50 51  1  0
 51 52  1  0
M  END
