
     RDKit          3D

 47 46  0  0  0  0  0  0  0  0999 V2000
   12.1332   -0.5656   -0.0497 O   0  0  0  0  0  0  0  0  0  0  0  0
   12.2450    0.4408    0.9073 C   0  0  0  0  0  0  0  0  0  0  0  0
   10.8654    0.8954    1.3380 C   0  0  0  0  0  0  0  0  0  0  0  0
   10.2252    1.5520    0.2835 O   0  0  0  0  0  0  0  0  0  0  0  0
    9.7165    2.7163    0.8571 C   0  0  0  0  0  0  0  0  0  0  0  0
    8.3542    3.0216    0.2669 C   0  0  0  0  0  0  0  0  0  0  0  0
    7.8446    4.1802    0.8512 O   0  0  0  0  0  0  0  0  0  0  0  0
    6.6022    3.8000    1.3590 C   0  0  0  0  0  0  0  0  0  0  0  0
    6.3091    4.5915    2.6176 C   0  0  0  0  0  0  0  0  0  0  0  0
    5.0715    4.2034    3.1293 O   0  0  0  0  0  0  0  0  0  0  0  0
    5.1631    4.4267    4.5063 C   0  0  0  0  0  0  0  0  0  0  0  0
    5.4803    3.1278    5.2340 C   0  0  0  0  0  0  0  0  0  0  0  0
    4.4550    2.2043    5.0282 O   0  0  0  0  0  0  0  0  0  0  0  0
    5.1083    1.0402    4.6292 C   0  0  0  0  0  0  0  0  0  0  0  0
    4.6967    0.6734    3.2150 C   0  0  0  0  0  0  0  0  0  0  0  0
    3.3439    0.3365    3.1864 O   0  0  0  0  0  0  0  0  0  0  0  0
    2.8764    0.8570    1.9784 C   0  0  0  0  0  0  0  0  0  0  0  0
    1.4353    0.4450    1.7853 C   0  0  0  0  0  0  0  0  0  0  0  0
    0.9436    0.9976    0.6023 O   0  0  0  0  0  0  0  0  0  0  0  0
   -0.4228    0.7156    0.6309 C   0  0  0  0  0  0  0  0  0  0  0  0
   -1.1312    1.4882   -0.4638 C   0  0  0  0  0  0  0  0  0  0  0  0
   -0.7651    0.9863   -1.7123 O   0  0  0  0  0  0  0  0  0  0  0  0
   -1.9768    0.7219   -2.3533 C   0  0  0  0  0  0  0  0  0  0  0  0
   -1.7811   -0.3502   -3.4097 C   0  0  0  0  0  0  0  0  0  0  0  0
   -0.9785    0.1418   -4.4427 O   0  0  0  0  0  0  0  0  0  0  0  0
   -1.2013   -0.7322   -5.5019 C   0  0  0  0  0  0  0  0  0  0  0  0
    0.1209   -1.3204   -5.9622 C   0  0  0  0  0  0  0  0  0  0  0  0
   -0.1139   -2.3371   -6.8932 O   0  0  0  0  0  0  0  0  0  0  0  0
    0.3429   -3.4970   -6.2627 C   0  0  0  0  0  0  0  0  0  0  0  0
   -0.6685   -4.6187   -6.4413 C   0  0  0  0  0  0  0  0  0  0  0  0
   -1.9031   -4.2478   -5.9094 O   0  0  0  0  0  0  0  0  0  0  0  0
   -1.9724   -4.8913   -4.6715 C   0  0  0  0  0  0  0  0  0  0  0  0
   -3.3577   -4.7038   -4.0693 C   0  0  0  0  0  0  0  0  0  0  0  0
   -3.6699   -3.3462   -3.9851 O   0  0  0  0  0  0  0  0  0  0  0  0
   -3.8164   -3.0944   -2.6190 C   0  0  0  0  0  0  0  0  0  0  0  0
   -5.0061   -2.1785   -2.3996 C   0  0  0  0  0  0  0  0  0  0  0  0
   -5.0289   -1.7481   -1.0716 O   0  0  0  0  0  0  0  0  0  0  0  0
   -6.1578   -2.3543   -0.5189 C   0  0  0  0  0  0  0  0  0  0  0  0
   -6.4617   -1.7238    0.8247 C   0  0  0  0  0  0  0  0  0  0  0  0
   -7.6133   -2.3013    1.3622 O   0  0  0  0  0  0  0  0  0  0  0  0
   -7.4778   -2.1391    2.7379 C   0  0  0  0  0  0  0  0  0  0  0  0
   -8.8441   -2.1473    3.3920 C   0  0  0  0  0  0  0  0  0  0  0  0
   -9.5679   -1.0208    2.9946 O   0  0  0  0  0  0  0  0  0  0  0  0
  -10.6291   -0.9479    3.9059 C   0  0  0  0  0  0  0  0  0  0  0  0
  -11.3966    0.3493    3.7026 C   0  0  0  0  0  0  0  0  0  0  0  0
  -10.5942    1.4355    4.0475 O   0  0  0  0  0  0  0  0  0  0  0  0
  -10.7972    2.1221    3.3641 H   0  0  0  0  0  0  0  0  0  0  0  0
  1  2  1  0
  2  3  1  0
  3  4  1  0
  4  5  1  0
  5  6  1  0
  6  7  1  0
  7  8  1  0
  8  9  1  0
  9 10  1  0
 10 11  1  0
 11 12  1  0
 12 13  1  0
 13 14  1  0
 14 15  1  0
 15 16  1  0
 16 17  1  0
 17 18  1  0
 18 19  1  0
 19 20  1  0
 20 21  1  0
 21 22  1  0
 22 23  1  0
 23 24  1  0
 24 25  1  0
 25 26  1  0
 26 27  1  0
 27 28  1  0
 28 29  1  0
 29 30  1  0
 30 31  1  0
 31 32  1  0
 32 33  1  0
 33 34  1  0
 34 35  1  0
 35 36  1  0
 36 37  1  0
 37 38  1  0
 38 39  1  0
 39 40  1  0
 40 41  1  0
 41 42  1  0
 42 43  1  0
 43 44  1  0
 44 45  1  0
 45 46  1  0
 46 47  1  0
M  END
