
     RDKit          3D

 50 49  0  0  0  0  0  0  0  0999 V2000
    9.5000   -3.4958   -2.7408 O   0  0  0  0  0  0  0  0  0  0  0  0
   10.0845   -2.3702   -2.1738 C   0  0  0  0  0  0  0  0  0  0  0  0
    9.8867   -1.2361   -2.6813 O   0  0  0  0  0  0  0  0  0  0  0  0
   10.9329   -2.5048   -0.9502 C   0  0  0  0  0  0  0  0  0  0  0  0
   10.1294   -2.3586    0.3421 C   0  0  0  0  0  0  0  0  0  0  0  0
    9.1371   -3.5008    0.5025 C   0  0  0  0  0  0  0  0  0  0  0  0
    9.4594   -1.1036    0.3740 O   0  0  0  0  0  0  0  0  0  0  0  0
    8.9786   -0.5414    1.5584 C   0  0  0  0  0  0  0  0  0  0  0  0
    9.1718   -1.1077    2.6693 O   0  0  0  0  0  0  0  0  0  0  0  0
    8.1967    0.7319    1.5005 C   0  0  0  0  0  0  0  0  0  0  0  0
    6.7085    0.4901    1.2232 C   0  0  0  0  0  0  0  0  0  0  0  0
    6.0311   -0.1505    2.4229 C   0  0  0  0  0  0  0  0  0  0  0  0
    6.5149   -0.3235    0.0695 O   0  0  0  0  0  0  0  0  0  0  0  0
    6.7471    0.1419   -1.2275 C   0  0  0  0  0  0  0  0  0  0  0  0
    7.1277    1.3298   -1.4329 O   0  0  0  0  0  0  0  0  0  0  0  0
    6.5050   -0.7705   -2.3816 C   0  0  0  0  0  0  0  0  0  0  0  0
    5.2480   -0.3549   -3.1317 C   0  0  0  0  0  0  0  0  0  0  0  0
    5.1027   -1.2033   -4.3802 C   0  0  0  0  0  0  0  0  0  0  0  0
    4.1052   -0.5245   -2.3005 O   0  0  0  0  0  0  0  0  0  0  0  0
    2.9720    0.2836   -2.4304 C   0  0  0  0  0  0  0  0  0  0  0  0
    2.9552    1.2346   -3.2590 O   0  0  0  0  0  0  0  0  0  0  0  0
    1.8049    0.0455   -1.5264 C   0  0  0  0  0  0  0  0  0  0  0  0
    0.4844    0.0466   -2.2936 C   0  0  0  0  0  0  0  0  0  0  0  0
   -0.0215    1.4641   -2.5184 C   0  0  0  0  0  0  0  0  0  0  0  0
   -0.5043   -0.7410   -1.6292 O   0  0  0  0  0  0  0  0  0  0  0  0
   -0.9739   -0.4914   -0.3339 C   0  0  0  0  0  0  0  0  0  0  0  0
   -0.4676    0.4276    0.3669 O   0  0  0  0  0  0  0  0  0  0  0  0
   -2.1309   -1.3064    0.1725 C   0  0  0  0  0  0  0  0  0  0  0  0
   -2.5472   -1.0287    1.6221 C   0  0  0  0  0  0  0  0  0  0  0  0
   -1.4815   -1.5031    2.5945 C   0  0  0  0  0  0  0  0  0  0  0  0
   -2.8223    0.3530    1.8326 O   0  0  0  0  0  0  0  0  0  0  0  0
   -3.9419    0.9904    1.2897 C   0  0  0  0  0  0  0  0  0  0  0  0
   -4.7835    0.3486    0.6062 O   0  0  0  0  0  0  0  0  0  0  0  0
   -4.1487    2.4486    1.5287 C   0  0  0  0  0  0  0  0  0  0  0  0
   -4.8693    2.7547    2.8430 C   0  0  0  0  0  0  0  0  0  0  0  0
   -4.0422    2.4322    4.0795 C   0  0  0  0  0  0  0  0  0  0  0  0
   -6.2006    2.2311    2.8854 O   0  0  0  0  0  0  0  0  0  0  0  0
   -6.5408    0.9077    3.1958 C   0  0  0  0  0  0  0  0  0  0  0  0
   -5.6921    0.1072    3.6740 O   0  0  0  0  0  0  0  0  0  0  0  0
   -7.9296    0.4377    2.9366 C   0  0  0  0  0  0  0  0  0  0  0  0
   -7.9831   -0.3423    1.6332 C   0  0  0  0  0  0  0  0  0  0  0  0
   -7.6138   -1.7942    1.8914 C   0  0  0  0  0  0  0  0  0  0  0  0
   -9.2939   -0.2589    1.0857 O   0  0  0  0  0  0  0  0  0  0  0  0
   -9.5813   -0.6279   -0.2297 C   0  0  0  0  0  0  0  0  0  0  0  0
   -8.6772   -1.0740   -0.9903 O   0  0  0  0  0  0  0  0  0  0  0  0
  -10.9672   -0.4591   -0.7498 C   0  0  0  0  0  0  0  0  0  0  0  0
  -11.0763    0.8191   -1.5691 C   0  0  0  0  0  0  0  0  0  0  0  0
  -12.4071    0.8404   -2.2886 C   0  0  0  0  0  0  0  0  0  0  0  0
  -10.9848    1.9363   -0.7361 O   0  0  0  0  0  0  0  0  0  0  0  0
  -10.1009    2.3346   -0.9456 H   0  0  0  0  0  0  0  0  0  0  0  0
  1  2  1  0
  2  3  2  0
  2  4  1  0
  4  5  1  0
  5  6  1  0
  5  7  1  0
  7  8  1  0
  8  9  2  0
  8 10  1  0
 10 11  1  0
 11 12  1  0
 11 13  1  0
 13 14  1  0
 14 15  2  0
 14 16  1  0
 16 17  1  0
 17 18  1  0
 17 19  1  0
 19 20  1  0
 20 21  2  0
 20 22  1  0
 22 23  1  0
 23 24  1  0
 23 25  1  0
 25 26  1  0
 26 27  2  0
 26 28  1  0
 28 29  1  0
 29 30  1  0
 29 31  1  0
 31 32  1  0
 32 33  2  0
 32 34  1  0
 34 35  1  0
 35 36  1  0
 35 37  1  0
 37 38  1  0
 38 39  2  0
 38 40  1  0
 40 41  1  0
 41 42  1  0
 41 43  1  0
 43 44  1  0
 44 45  2  0
 44 46  1  0
 46 47  1  0
 47 48  1  0
 47 49  1  0
 49 50  1  0
M  END
