
     RDKit          3D

 50 49  0  0  0  0  0  0  0  0999 V2000
  -11.6330    1.9265    1.7086 O   0  0  0  0  0  0  0  0  0  0  0  0
  -12.0186    1.7382    0.3788 C   0  0  0  0  0  0  0  0  0  0  0  0
  -12.9888    2.8323   -0.0529 C   0  0  0  0  0  0  0  0  0  0  0  0
  -12.3978    4.2233    0.1195 C   0  0  0  0  0  0  0  0  0  0  0  0
  -10.7980    1.7009   -0.5313 C   0  0  0  0  0  0  0  0  0  0  0  0
  -10.0103    0.4570   -0.3073 C   0  0  0  0  0  0  0  0  0  0  0  0
  -10.1789   -0.5322   -1.0713 O   0  0  0  0  0  0  0  0  0  0  0  0
   -9.1038    0.3964    0.7525 O   0  0  0  0  0  0  0  0  0  0  0  0
   -8.3133   -0.7580    1.0010 C   0  0  0  0  0  0  0  0  0  0  0  0
   -8.4977   -1.1860    2.4420 C   0  0  0  0  0  0  0  0  0  0  0  0
   -6.8441   -0.4479    0.7570 C   0  0  0  0  0  0  0  0  0  0  0  0
   -6.5460   -0.3523   -0.7050 C   0  0  0  0  0  0  0  0  0  0  0  0
   -6.9773    0.5854   -1.3603 O   0  0  0  0  0  0  0  0  0  0  0  0
   -5.6814   -1.3971   -1.3459 C   0  0  0  0  0  0  0  0  0  0  0  0
   -6.4621   -2.1227   -2.4307 C   0  0  0  0  0  0  0  0  0  0  0  0
   -5.7759   -3.4260   -2.7952 C   0  0  0  0  0  0  0  0  0  0  0  0
   -4.4111   -0.7788   -1.9229 C   0  0  0  0  0  0  0  0  0  0  0  0
   -3.4630   -0.4114   -0.8329 C   0  0  0  0  0  0  0  0  0  0  0  0
   -3.4249    0.7784   -0.4160 O   0  0  0  0  0  0  0  0  0  0  0  0
   -2.6581   -1.3971   -0.2589 O   0  0  0  0  0  0  0  0  0  0  0  0
   -1.7511   -1.1059    0.7946 C   0  0  0  0  0  0  0  0  0  0  0  0
   -1.9667   -2.0902    1.9260 C   0  0  0  0  0  0  0  0  0  0  0  0
   -0.3148   -1.2198    0.3049 C   0  0  0  0  0  0  0  0  0  0  0  0
    0.0214   -0.1342   -0.6730 C   0  0  0  0  0  0  0  0  0  0  0  0
   -0.2909   -0.2701   -1.8440 O   0  0  0  0  0  0  0  0  0  0  0  0
    0.7156    1.1303   -0.2377 C   0  0  0  0  0  0  0  0  0  0  0  0
   -0.3017    2.1738    0.1953 C   0  0  0  0  0  0  0  0  0  0  0  0
   -0.9249    2.8391   -1.0165 C   0  0  0  0  0  0  0  0  0  0  0  0
    1.7000    0.8884    0.8999 C   0  0  0  0  0  0  0  0  0  0  0  0
    2.9554    0.2644    0.3950 C   0  0  0  0  0  0  0  0  0  0  0  0
    3.9376    0.9969    0.0973 O   0  0  0  0  0  0  0  0  0  0  0  0
    3.0208   -1.1215    0.2371 O   0  0  0  0  0  0  0  0  0  0  0  0
    4.2109   -1.7853   -0.1649 C   0  0  0  0  0  0  0  0  0  0  0  0
    3.8586   -3.1767   -0.6528 C   0  0  0  0  0  0  0  0  0  0  0  0
    5.1686   -1.8785    1.0146 C   0  0  0  0  0  0  0  0  0  0  0  0
    6.5875   -2.0357    0.5545 C   0  0  0  0  0  0  0  0  0  0  0  0
    6.9339   -3.0674    0.0024 O   0  0  0  0  0  0  0  0  0  0  0  0
    7.6038   -0.9571    0.7922 C   0  0  0  0  0  0  0  0  0  0  0  0
    7.9903   -0.8279    2.2703 C   0  0  0  0  0  0  0  0  0  0  0  0
    6.8776   -0.2371    3.1242 C   0  0  0  0  0  0  0  0  0  0  0  0
    7.1831    0.3659    0.1543 C   0  0  0  0  0  0  0  0  0  0  0  0
    8.3305    1.3134    0.0828 C   0  0  0  0  0  0  0  0  0  0  0  0
    8.2767    2.4029    0.7152 O   0  0  0  0  0  0  0  0  0  0  0  0
    9.4549    0.9800   -0.6755 O   0  0  0  0  0  0  0  0  0  0  0  0
   10.6194    1.7988   -0.7129 C   0  0  0  0  0  0  0  0  0  0  0  0
   11.4869    1.4135   -1.8975 C   0  0  0  0  0  0  0  0  0  0  0  0
   11.4022    1.7102    0.5991 C   0  0  0  0  0  0  0  0  0  0  0  0
   11.6952    0.2979    1.0091 C   0  0  0  0  0  0  0  0  0  0  0  0
   12.4884   -0.3789    0.3747 O   0  0  0  0  0  0  0  0  0  0  0  0
   11.2148   -0.1182    1.8872 H   0  0  0  0  0  0  0  0  0  0  0  0
  1  2  1  0
  2  3  1  0
  2  5  1  0
  3  4  1  0
  5  6  1  0
  6  7  2  0
  6  8  1  0
  8  9  1  0
  9 10  1  0
  9 11  1  0
 11 12  1  0
 12 13  2  0
 12 14  1  0
 14 15  1  0
 14 17  1  0
 15 16  1  0
 17 18  1  0
 18 19  2  0
 18 20  1  0
 20 21  1  0
 21 22  1  0
 21 23  1  0
 23 24  1  0
 24 25  2  0
 24 26  1  0
 26 27  1  0
 26 29  1  0
 27 28  1  0
 29 30  1  0
 30 31  2  0
 30 32  1  0
 32 33  1  0
 33 34  1  0
 33 35  1  0
 35 36  1  0
 36 37  2  0
 36 38  1  0
 38 39  1  0
 38 41  1  0
 39 40  1  0
 41 42  1  0
 42 43  2  0
 42 44  1  0
 44 45  1  0
 45 46  1  0
 45 47  1  0
 47 48  1  0
 48 49  2  0
 48 50  1  0
M  END
