
     RDKit          3D

 39 38  0  0  0  0  0  0  0  0999 V2000
    2.4248    2.5218   -1.9367 O   0  0  0  0  0  0  0  0  0  0  0  0
    1.8252    3.5581   -2.6329 C   0  0  2  0  0  0  0  0  0  0  0  0
    1.3238    4.6050   -1.6799 C   0  0  0  0  0  0  0  0  0  0  0  0
    0.7640    3.0365   -3.5709 C   0  0  0  0  0  0  0  0  0  0  0  0
   -0.3224    2.3094   -2.9146 C   0  0  0  0  0  0  0  0  0  0  0  0
   -1.2474    1.8444   -3.6485 O   0  0  0  0  0  0  0  0  0  0  0  0
   -0.3111    2.1543   -1.5546 O   0  0  0  0  0  0  0  0  0  0  0  0
   -1.3369    1.4553   -0.8295 C   0  0  2  0  0  0  0  0  0  0  0  0
   -1.8751    2.4701    0.1546 C   0  0  0  0  0  0  0  0  0  0  0  0
   -0.6111    0.3601   -0.0828 C   0  0  0  0  0  0  0  0  0  0  0  0
   -1.5387   -0.4698    0.7296 C   0  0  0  0  0  0  0  0  0  0  0  0
   -2.7803   -0.2732    0.7806 O   0  0  0  0  0  0  0  0  0  0  0  0
   -0.9744   -1.5082    1.4588 O   0  0  0  0  0  0  0  0  0  0  0  0
   -1.6811   -2.3868    2.2730 C   0  0  2  0  0  0  0  0  0  0  0  0
   -1.0849   -2.2390    3.6789 C   0  0  0  0  0  0  0  0  0  0  0  0
   -1.3605   -3.8074    1.8577 C   0  0  0  0  0  0  0  0  0  0  0  0
   -1.7206   -4.0926    0.4639 C   0  0  0  0  0  0  0  0  0  0  0  0
   -1.5031   -5.2414   -0.0008 O   0  0  0  0  0  0  0  0  0  0  0  0
   -2.2998   -3.1170   -0.3587 O   0  0  0  0  0  0  0  0  0  0  0  0
    2.0266    2.3837   -1.0484 H   0  0  0  0  0  0  0  0  0  0  0  0
    2.6120    4.0155   -3.2766 H   0  0  0  0  0  0  0  0  0  0  0  0
    0.5502    5.2597   -2.0860 H   0  0  0  0  0  0  0  0  0  0  0  0
    2.2251    5.2086   -1.3720 H   0  0  0  0  0  0  0  0  0  0  0  0
    0.9957    4.0934   -0.7372 H   0  0  0  0  0  0  0  0  0  0  0  0
    1.3079    2.2935   -4.2253 H   0  0  0  0  0  0  0  0  0  0  0  0
    0.4418    3.8286   -4.2773 H   0  0  0  0  0  0  0  0  0  0  0  0
   -2.1207    1.0644   -1.4791 H   0  0  0  0  0  0  0  0  0  0  0  0
   -2.5139    3.1713   -0.4315 H   0  0  0  0  0  0  0  0  0  0  0  0
   -2.5020    2.0420    0.9394 H   0  0  0  0  0  0  0  0  0  0  0  0
   -1.0265    3.0731    0.5527 H   0  0  0  0  0  0  0  0  0  0  0  0
   -0.1949   -0.3314   -0.8578 H   0  0  0  0  0  0  0  0  0  0  0  0
    0.2445    0.7516    0.4736 H   0  0  0  0  0  0  0  0  0  0  0  0
   -2.7688   -2.1967    2.3036 H   0  0  0  0  0  0  0  0  0  0  0  0
   -1.3174   -1.1997    3.9931 H   0  0  0  0  0  0  0  0  0  0  0  0
   -1.4797   -2.9965    4.3632 H   0  0  0  0  0  0  0  0  0  0  0  0
    0.0180   -2.2721    3.5546 H   0  0  0  0  0  0  0  0  0  0  0  0
   -1.7824   -4.5481    2.5760 H   0  0  0  0  0  0  0  0  0  0  0  0
   -0.2501   -3.9068    1.9675 H   0  0  0  0  0  0  0  0  0  0  0  0
   -2.5704   -3.3749   -1.3018 H   0  0  0  0  0  0  0  0  0  0  0  0
  1  2  1  0
  2  3  1  0
  2  4  1  0
  4  5  1  0
  5  6  2  0
  5  7  1  0
  7  8  1  0
  8  9  1  0
  8 10  1  0
 10 11  1  0
 11 12  2  0
 11 13  1  0
 13 14  1  0
 14 15  1  0
 14 16  1  0
 16 17  1  0
 17 18  2  0
 17 19  1  0
  1 20  1  0
  2 21  1  6
  3 22  1  0
  3 23  1  0
  3 24  1  0
  4 25  1  0
  4 26  1  0
  8 27  1  6
  9 28  1  0
  9 29  1  0
  9 30  1  0
 10 31  1  0
 10 32  1  0
 14 33  1  1
 15 34  1  0
 15 35  1  0
 15 36  1  0
 16 37  1  0
 16 38  1  0
 19 39  1  0
M  END
$$$$
